
---------- Begin Simulation Statistics ----------
sim_seconds                                  0.645733                       # Number of seconds simulated
sim_ticks                                645733118500                       # Number of ticks simulated
final_tick                               645733118500                       # Number of ticks from beginning of simulation (restored from checkpoints and never reset)
sim_freq                                 1000000000000                       # Frequency of simulated ticks
host_inst_rate                                  88677                       # Simulator instruction rate (inst/s)
host_op_rate                                   170226                       # Simulator op (including micro ops) rate (op/s)
host_tick_rate                             1145228091                       # Simulator tick rate (ticks/s)
host_mem_usage                                 833896                       # Number of bytes of host memory used
host_seconds                                   563.85                       # Real time elapsed on the host
sim_insts                                    50000000                       # Number of instructions simulated
sim_ops                                      95981250                       # Number of ops (including micro ops) simulated
system.voltage_domain.voltage                       1                       # Voltage in Volts
system.clk_domain.clock                          1000                       # Clock period in ticks
system.mem_ctrls.bytes_read::cpu.inst           51264                       # Number of bytes read from this memory
system.mem_ctrls.bytes_read::cpu.data       414840064                       # Number of bytes read from this memory
system.mem_ctrls.bytes_read::total          414891328                       # Number of bytes read from this memory
system.mem_ctrls.bytes_inst_read::cpu.inst        51264                       # Number of instructions bytes read from this memory
system.mem_ctrls.bytes_inst_read::total         51264                       # Number of instructions bytes read from this memory
system.mem_ctrls.bytes_written::writebacks    413774656                       # Number of bytes written to this memory
system.mem_ctrls.bytes_written::total       413774656                       # Number of bytes written to this memory
system.mem_ctrls.num_reads::cpu.inst              801                       # Number of read requests responded to by this memory
system.mem_ctrls.num_reads::cpu.data          6481876                       # Number of read requests responded to by this memory
system.mem_ctrls.num_reads::total             6482677                       # Number of read requests responded to by this memory
system.mem_ctrls.num_writes::writebacks       6465229                       # Number of write requests responded to by this memory
system.mem_ctrls.num_writes::total            6465229                       # Number of write requests responded to by this memory
system.mem_ctrls.bw_read::cpu.inst              79389                       # Total read bandwidth from this memory (bytes/s)
system.mem_ctrls.bw_read::cpu.data          642432689                       # Total read bandwidth from this memory (bytes/s)
system.mem_ctrls.bw_read::total             642512078                       # Total read bandwidth from this memory (bytes/s)
system.mem_ctrls.bw_inst_read::cpu.inst         79389                       # Instruction read bandwidth from this memory (bytes/s)
system.mem_ctrls.bw_inst_read::total            79389                       # Instruction read bandwidth from this memory (bytes/s)
system.mem_ctrls.bw_write::writebacks       640782769                       # Write bandwidth from this memory (bytes/s)
system.mem_ctrls.bw_write::total            640782769                       # Write bandwidth from this memory (bytes/s)
system.mem_ctrls.bw_total::writebacks       640782769                       # Total bandwidth to/from this memory (bytes/s)
system.mem_ctrls.bw_total::cpu.inst             79389                       # Total bandwidth to/from this memory (bytes/s)
system.mem_ctrls.bw_total::cpu.data         642432689                       # Total bandwidth to/from this memory (bytes/s)
system.mem_ctrls.bw_total::total           1283294848                       # Total bandwidth to/from this memory (bytes/s)
system.mem_ctrls.readReqs                     6482677                       # Number of read requests accepted
system.mem_ctrls.writeReqs                    6465229                       # Number of write requests accepted
system.mem_ctrls.readBursts                   6482677                       # Number of DRAM read bursts, including those serviced by the write queue
system.mem_ctrls.writeBursts                  6465229                       # Number of DRAM write bursts, including those merged in the write queue
system.mem_ctrls.bytesReadDRAM              414891328                       # Total number of bytes read from DRAM
system.mem_ctrls.bytesReadWrQ                       0                       # Total number of bytes read from write queue
system.mem_ctrls.bytesWritten               413772672                       # Total number of bytes written to DRAM
system.mem_ctrls.bytesReadSys               414891328                       # Total read bytes from the system interface side
system.mem_ctrls.bytesWrittenSys            413774656                       # Total written bytes from the system interface side
system.mem_ctrls.servicedByWrQ                      0                       # Number of DRAM read bursts serviced by the write queue
system.mem_ctrls.mergedWrBursts                     0                       # Number of DRAM write bursts merged with an existing one
system.mem_ctrls.neitherReadNorWriteReqs          294                       # Number of requests that are neither read nor write
system.mem_ctrls.perBankRdBursts::0            405123                       # Per bank write bursts
system.mem_ctrls.perBankRdBursts::1            405056                       # Per bank write bursts
system.mem_ctrls.perBankRdBursts::2            405044                       # Per bank write bursts
system.mem_ctrls.perBankRdBursts::3            405057                       # Per bank write bursts
system.mem_ctrls.perBankRdBursts::4            405157                       # Per bank write bursts
system.mem_ctrls.perBankRdBursts::5            405098                       # Per bank write bursts
system.mem_ctrls.perBankRdBursts::6            404913                       # Per bank write bursts
system.mem_ctrls.perBankRdBursts::7            405002                       # Per bank write bursts
system.mem_ctrls.perBankRdBursts::8            405005                       # Per bank write bursts
system.mem_ctrls.perBankRdBursts::9            405137                       # Per bank write bursts
system.mem_ctrls.perBankRdBursts::10           405258                       # Per bank write bursts
system.mem_ctrls.perBankRdBursts::11           405381                       # Per bank write bursts
system.mem_ctrls.perBankRdBursts::12           405354                       # Per bank write bursts
system.mem_ctrls.perBankRdBursts::13           405372                       # Per bank write bursts
system.mem_ctrls.perBankRdBursts::14           405357                       # Per bank write bursts
system.mem_ctrls.perBankRdBursts::15           405363                       # Per bank write bursts
system.mem_ctrls.perBankWrBursts::0            403968                       # Per bank write bursts
system.mem_ctrls.perBankWrBursts::1            403979                       # Per bank write bursts
system.mem_ctrls.perBankWrBursts::2            403994                       # Per bank write bursts
system.mem_ctrls.perBankWrBursts::3            403934                       # Per bank write bursts
system.mem_ctrls.perBankWrBursts::4            404012                       # Per bank write bursts
system.mem_ctrls.perBankWrBursts::5            403964                       # Per bank write bursts
system.mem_ctrls.perBankWrBursts::6            403848                       # Per bank write bursts
system.mem_ctrls.perBankWrBursts::7            403887                       # Per bank write bursts
system.mem_ctrls.perBankWrBursts::8            403954                       # Per bank write bursts
system.mem_ctrls.perBankWrBursts::9            404047                       # Per bank write bursts
system.mem_ctrls.perBankWrBursts::10           404170                       # Per bank write bursts
system.mem_ctrls.perBankWrBursts::11           404323                       # Per bank write bursts
system.mem_ctrls.perBankWrBursts::12           404297                       # Per bank write bursts
system.mem_ctrls.perBankWrBursts::13           404286                       # Per bank write bursts
system.mem_ctrls.perBankWrBursts::14           404291                       # Per bank write bursts
system.mem_ctrls.perBankWrBursts::15           404244                       # Per bank write bursts
system.mem_ctrls.numRdRetry                         0                       # Number of times read queue was full causing retry
system.mem_ctrls.numWrRetry                         0                       # Number of times write queue was full causing retry
system.mem_ctrls.totGap                  645733103500                       # Total gap between requests
system.mem_ctrls.readPktSize::0                     0                       # Read request sizes (log2)
system.mem_ctrls.readPktSize::1                     0                       # Read request sizes (log2)
system.mem_ctrls.readPktSize::2                     0                       # Read request sizes (log2)
system.mem_ctrls.readPktSize::3                     0                       # Read request sizes (log2)
system.mem_ctrls.readPktSize::4                     0                       # Read request sizes (log2)
system.mem_ctrls.readPktSize::5                     0                       # Read request sizes (log2)
system.mem_ctrls.readPktSize::6               6482677                       # Read request sizes (log2)
system.mem_ctrls.writePktSize::0                    0                       # Write request sizes (log2)
system.mem_ctrls.writePktSize::1                    0                       # Write request sizes (log2)
system.mem_ctrls.writePktSize::2                    0                       # Write request sizes (log2)
system.mem_ctrls.writePktSize::3                    0                       # Write request sizes (log2)
system.mem_ctrls.writePktSize::4                    0                       # Write request sizes (log2)
system.mem_ctrls.writePktSize::5                    0                       # Write request sizes (log2)
system.mem_ctrls.writePktSize::6              6465229                       # Write request sizes (log2)
system.mem_ctrls.rdQLenPdf::0                 6482676                       # What read queue length does an incoming req see
system.mem_ctrls.rdQLenPdf::1                       1                       # What read queue length does an incoming req see
system.mem_ctrls.rdQLenPdf::2                       0                       # What read queue length does an incoming req see
system.mem_ctrls.rdQLenPdf::3                       0                       # What read queue length does an incoming req see
system.mem_ctrls.rdQLenPdf::4                       0                       # What read queue length does an incoming req see
system.mem_ctrls.rdQLenPdf::5                       0                       # What read queue length does an incoming req see
system.mem_ctrls.rdQLenPdf::6                       0                       # What read queue length does an incoming req see
system.mem_ctrls.rdQLenPdf::7                       0                       # What read queue length does an incoming req see
system.mem_ctrls.rdQLenPdf::8                       0                       # What read queue length does an incoming req see
system.mem_ctrls.rdQLenPdf::9                       0                       # What read queue length does an incoming req see
system.mem_ctrls.rdQLenPdf::10                      0                       # What read queue length does an incoming req see
system.mem_ctrls.rdQLenPdf::11                      0                       # What read queue length does an incoming req see
system.mem_ctrls.rdQLenPdf::12                      0                       # What read queue length does an incoming req see
system.mem_ctrls.rdQLenPdf::13                      0                       # What read queue length does an incoming req see
system.mem_ctrls.rdQLenPdf::14                      0                       # What read queue length does an incoming req see
system.mem_ctrls.rdQLenPdf::15                      0                       # What read queue length does an incoming req see
system.mem_ctrls.rdQLenPdf::16                      0                       # What read queue length does an incoming req see
system.mem_ctrls.rdQLenPdf::17                      0                       # What read queue length does an incoming req see
system.mem_ctrls.rdQLenPdf::18                      0                       # What read queue length does an incoming req see
system.mem_ctrls.rdQLenPdf::19                      0                       # What read queue length does an incoming req see
system.mem_ctrls.rdQLenPdf::20                      0                       # What read queue length does an incoming req see
system.mem_ctrls.rdQLenPdf::21                      0                       # What read queue length does an incoming req see
system.mem_ctrls.rdQLenPdf::22                      0                       # What read queue length does an incoming req see
system.mem_ctrls.rdQLenPdf::23                      0                       # What read queue length does an incoming req see
system.mem_ctrls.rdQLenPdf::24                      0                       # What read queue length does an incoming req see
system.mem_ctrls.rdQLenPdf::25                      0                       # What read queue length does an incoming req see
system.mem_ctrls.rdQLenPdf::26                      0                       # What read queue length does an incoming req see
system.mem_ctrls.rdQLenPdf::27                      0                       # What read queue length does an incoming req see
system.mem_ctrls.rdQLenPdf::28                      0                       # What read queue length does an incoming req see
system.mem_ctrls.rdQLenPdf::29                      0                       # What read queue length does an incoming req see
system.mem_ctrls.rdQLenPdf::30                      0                       # What read queue length does an incoming req see
system.mem_ctrls.rdQLenPdf::31                      0                       # What read queue length does an incoming req see
system.mem_ctrls.wrQLenPdf::0                       1                       # What write queue length does an incoming req see
system.mem_ctrls.wrQLenPdf::1                       1                       # What write queue length does an incoming req see
system.mem_ctrls.wrQLenPdf::2                       1                       # What write queue length does an incoming req see
system.mem_ctrls.wrQLenPdf::3                       1                       # What write queue length does an incoming req see
system.mem_ctrls.wrQLenPdf::4                       1                       # What write queue length does an incoming req see
system.mem_ctrls.wrQLenPdf::5                       1                       # What write queue length does an incoming req see
system.mem_ctrls.wrQLenPdf::6                       1                       # What write queue length does an incoming req see
system.mem_ctrls.wrQLenPdf::7                       1                       # What write queue length does an incoming req see
system.mem_ctrls.wrQLenPdf::8                       1                       # What write queue length does an incoming req see
system.mem_ctrls.wrQLenPdf::9                       1                       # What write queue length does an incoming req see
system.mem_ctrls.wrQLenPdf::10                      1                       # What write queue length does an incoming req see
system.mem_ctrls.wrQLenPdf::11                      1                       # What write queue length does an incoming req see
system.mem_ctrls.wrQLenPdf::12                      1                       # What write queue length does an incoming req see
system.mem_ctrls.wrQLenPdf::13                      1                       # What write queue length does an incoming req see
system.mem_ctrls.wrQLenPdf::14                      1                       # What write queue length does an incoming req see
system.mem_ctrls.wrQLenPdf::15                   1017                       # What write queue length does an incoming req see
system.mem_ctrls.wrQLenPdf::16                   1018                       # What write queue length does an incoming req see
system.mem_ctrls.wrQLenPdf::17                 402282                       # What write queue length does an incoming req see
system.mem_ctrls.wrQLenPdf::18                 403888                       # What write queue length does an incoming req see
system.mem_ctrls.wrQLenPdf::19                 403888                       # What write queue length does an incoming req see
system.mem_ctrls.wrQLenPdf::20                 403890                       # What write queue length does an incoming req see
system.mem_ctrls.wrQLenPdf::21                 403888                       # What write queue length does an incoming req see
system.mem_ctrls.wrQLenPdf::22                 403887                       # What write queue length does an incoming req see
system.mem_ctrls.wrQLenPdf::23                 403886                       # What write queue length does an incoming req see
system.mem_ctrls.wrQLenPdf::24                 403892                       # What write queue length does an incoming req see
system.mem_ctrls.wrQLenPdf::25                 406477                       # What write queue length does an incoming req see
system.mem_ctrls.wrQLenPdf::26                 403886                       # What write queue length does an incoming req see
system.mem_ctrls.wrQLenPdf::27                 403887                       # What write queue length does an incoming req see
system.mem_ctrls.wrQLenPdf::28                 403886                       # What write queue length does an incoming req see
system.mem_ctrls.wrQLenPdf::29                 403886                       # What write queue length does an incoming req see
system.mem_ctrls.wrQLenPdf::30                 403886                       # What write queue length does an incoming req see
system.mem_ctrls.wrQLenPdf::31                 403885                       # What write queue length does an incoming req see
system.mem_ctrls.wrQLenPdf::32                 403885                       # What write queue length does an incoming req see
system.mem_ctrls.wrQLenPdf::33                      0                       # What write queue length does an incoming req see
system.mem_ctrls.wrQLenPdf::34                      0                       # What write queue length does an incoming req see
system.mem_ctrls.wrQLenPdf::35                      0                       # What write queue length does an incoming req see
system.mem_ctrls.wrQLenPdf::36                      0                       # What write queue length does an incoming req see
system.mem_ctrls.wrQLenPdf::37                      0                       # What write queue length does an incoming req see
system.mem_ctrls.wrQLenPdf::38                      0                       # What write queue length does an incoming req see
system.mem_ctrls.wrQLenPdf::39                      0                       # What write queue length does an incoming req see
system.mem_ctrls.wrQLenPdf::40                      0                       # What write queue length does an incoming req see
system.mem_ctrls.wrQLenPdf::41                      0                       # What write queue length does an incoming req see
system.mem_ctrls.wrQLenPdf::42                      0                       # What write queue length does an incoming req see
system.mem_ctrls.wrQLenPdf::43                      0                       # What write queue length does an incoming req see
system.mem_ctrls.wrQLenPdf::44                      0                       # What write queue length does an incoming req see
system.mem_ctrls.wrQLenPdf::45                      0                       # What write queue length does an incoming req see
system.mem_ctrls.wrQLenPdf::46                      0                       # What write queue length does an incoming req see
system.mem_ctrls.wrQLenPdf::47                      0                       # What write queue length does an incoming req see
system.mem_ctrls.wrQLenPdf::48                      0                       # What write queue length does an incoming req see
system.mem_ctrls.wrQLenPdf::49                      0                       # What write queue length does an incoming req see
system.mem_ctrls.wrQLenPdf::50                      0                       # What write queue length does an incoming req see
system.mem_ctrls.wrQLenPdf::51                      0                       # What write queue length does an incoming req see
system.mem_ctrls.wrQLenPdf::52                      0                       # What write queue length does an incoming req see
system.mem_ctrls.wrQLenPdf::53                      0                       # What write queue length does an incoming req see
system.mem_ctrls.wrQLenPdf::54                      0                       # What write queue length does an incoming req see
system.mem_ctrls.wrQLenPdf::55                      0                       # What write queue length does an incoming req see
system.mem_ctrls.wrQLenPdf::56                      0                       # What write queue length does an incoming req see
system.mem_ctrls.wrQLenPdf::57                      0                       # What write queue length does an incoming req see
system.mem_ctrls.wrQLenPdf::58                      0                       # What write queue length does an incoming req see
system.mem_ctrls.wrQLenPdf::59                      0                       # What write queue length does an incoming req see
system.mem_ctrls.wrQLenPdf::60                      0                       # What write queue length does an incoming req see
system.mem_ctrls.wrQLenPdf::61                      0                       # What write queue length does an incoming req see
system.mem_ctrls.wrQLenPdf::62                      0                       # What write queue length does an incoming req see
system.mem_ctrls.wrQLenPdf::63                      0                       # What write queue length does an incoming req see
system.mem_ctrls.bytesPerActivate::samples       978264                       # Bytes accessed per row activation
system.mem_ctrls.bytesPerActivate::mean    847.075064                       # Bytes accessed per row activation
system.mem_ctrls.bytesPerActivate::gmean   738.937243                       # Bytes accessed per row activation
system.mem_ctrls.bytesPerActivate::stdev   298.060324                       # Bytes accessed per row activation
system.mem_ctrls.bytesPerActivate::0-127        32120      3.28%      3.28% # Bytes accessed per row activation
system.mem_ctrls.bytesPerActivate::128-255        39033      3.99%      7.27% # Bytes accessed per row activation
system.mem_ctrls.bytesPerActivate::256-383        47504      4.86%     12.13% # Bytes accessed per row activation
system.mem_ctrls.bytesPerActivate::384-511        43563      4.45%     16.58% # Bytes accessed per row activation
system.mem_ctrls.bytesPerActivate::512-639        35330      3.61%     20.19% # Bytes accessed per row activation
system.mem_ctrls.bytesPerActivate::640-767        53067      5.42%     25.62% # Bytes accessed per row activation
system.mem_ctrls.bytesPerActivate::768-895        33912      3.47%     29.09% # Bytes accessed per row activation
system.mem_ctrls.bytesPerActivate::896-1023        43355      4.43%     33.52% # Bytes accessed per row activation
system.mem_ctrls.bytesPerActivate::1024-1151       650380     66.48%    100.00% # Bytes accessed per row activation
system.mem_ctrls.bytesPerActivate::total       978264                       # Bytes accessed per row activation
system.mem_ctrls.rdPerTurnAround::samples       403885                       # Reads before turning the bus around for writes
system.mem_ctrls.rdPerTurnAround::mean      16.050764                       # Reads before turning the bus around for writes
system.mem_ctrls.rdPerTurnAround::gmean     16.010634                       # Reads before turning the bus around for writes
system.mem_ctrls.rdPerTurnAround::stdev     11.855700                       # Reads before turning the bus around for writes
system.mem_ctrls.rdPerTurnAround::0-255        403879    100.00%    100.00% # Reads before turning the bus around for writes
system.mem_ctrls.rdPerTurnAround::256-511            1      0.00%    100.00% # Reads before turning the bus around for writes
system.mem_ctrls.rdPerTurnAround::1024-1279            1      0.00%    100.00% # Reads before turning the bus around for writes
system.mem_ctrls.rdPerTurnAround::1792-2047            1      0.00%    100.00% # Reads before turning the bus around for writes
system.mem_ctrls.rdPerTurnAround::2304-2559            1      0.00%    100.00% # Reads before turning the bus around for writes
system.mem_ctrls.rdPerTurnAround::3584-3839            1      0.00%    100.00% # Reads before turning the bus around for writes
system.mem_ctrls.rdPerTurnAround::5632-5887            1      0.00%    100.00% # Reads before turning the bus around for writes
system.mem_ctrls.rdPerTurnAround::total        403885                       # Reads before turning the bus around for writes
system.mem_ctrls.wrPerTurnAround::samples       403885                       # Writes before turning the bus around for reads
system.mem_ctrls.wrPerTurnAround::mean      16.007522                       # Writes before turning the bus around for reads
system.mem_ctrls.wrPerTurnAround::gmean     16.006897                       # Writes before turning the bus around for reads
system.mem_ctrls.wrPerTurnAround::stdev      0.149816                       # Writes before turning the bus around for reads
system.mem_ctrls.wrPerTurnAround::16           402868     99.75%     99.75% # Writes before turning the bus around for reads
system.mem_ctrls.wrPerTurnAround::18               13      0.00%     99.75% # Writes before turning the bus around for reads
system.mem_ctrls.wrPerTurnAround::19             1004      0.25%    100.00% # Writes before turning the bus around for reads
system.mem_ctrls.wrPerTurnAround::total        403885                       # Writes before turning the bus around for reads
system.mem_ctrls.totQLat                  67734003750                       # Total ticks spent queuing
system.mem_ctrls.totMemAccLat            189284197500                       # Total ticks spent from burst creation until serviced by the DRAM
system.mem_ctrls.totBusLat                32413385000                       # Total ticks spent in databus transfers
system.mem_ctrls.avgQLat                     10448.46                       # Average queueing delay per DRAM burst
system.mem_ctrls.avgBusLat                    5000.00                       # Average bus latency per DRAM burst
system.mem_ctrls.avgMemAccLat                29198.46                       # Average memory access latency per DRAM burst
system.mem_ctrls.avgRdBW                       642.51                       # Average DRAM read bandwidth in MiByte/s
system.mem_ctrls.avgWrBW                       640.78                       # Average achieved write bandwidth in MiByte/s
system.mem_ctrls.avgRdBWSys                    642.51                       # Average system read bandwidth in MiByte/s
system.mem_ctrls.avgWrBWSys                    640.78                       # Average system write bandwidth in MiByte/s
system.mem_ctrls.peakBW                      12800.00                       # Theoretical peak bandwidth in MiByte/s
system.mem_ctrls.busUtil                        10.03                       # Data bus utilization in percentage
system.mem_ctrls.busUtilRead                     5.02                       # Data bus utilization in percentage for reads
system.mem_ctrls.busUtilWrite                    5.01                       # Data bus utilization in percentage for writes
system.mem_ctrls.avgRdQLen                       1.00                       # Average read queue length when enqueuing
system.mem_ctrls.avgWrQLen                      25.73                       # Average write queue length when enqueuing
system.mem_ctrls.readRowHits                  5954212                       # Number of row buffer hits during reads
system.mem_ctrls.writeRowHits                 6015398                       # Number of row buffer hits during writes
system.mem_ctrls.readRowHitRate                 91.85                       # Row buffer hit rate for reads
system.mem_ctrls.writeRowHitRate                93.04                       # Row buffer hit rate for writes
system.mem_ctrls.avgGap                      49871.62                       # Average gap between requests
system.mem_ctrls.pageHitRate                    92.44                       # Row buffer hit rate, read and write combined
system.mem_ctrls_0.actEnergy               3698503200                       # Energy for activate commands per rank (pJ)
system.mem_ctrls_0.preEnergy               2018032500                       # Energy for precharge commands per rank (pJ)
system.mem_ctrls_0.readEnergy             25275393000                       # Energy for read commands per rank (pJ)
system.mem_ctrls_0.writeEnergy            20940677280                       # Energy for write commands per rank (pJ)
system.mem_ctrls_0.refreshEnergy          42175897920                       # Energy for refresh commands per rank (pJ)
system.mem_ctrls_0.actBackEnergy         228783851460                       # Energy for active background per rank (pJ)
system.mem_ctrls_0.preBackEnergy         186750129750                       # Energy for precharge background per rank (pJ)
system.mem_ctrls_0.totalEnergy           509642485110                       # Total energy per rank (pJ)
system.mem_ctrls_0.averagePower            789.250701                       # Core power per rank (mW)
system.mem_ctrls_0.memoryStateTime::IDLE 305857315000                       # Time in different power states
system.mem_ctrls_0.memoryStateTime::REF   21562320000                       # Time in different power states
system.mem_ctrls_0.memoryStateTime::PRE_PDN            0                       # Time in different power states
system.mem_ctrls_0.memoryStateTime::ACT  318312096000                       # Time in different power states
system.mem_ctrls_0.memoryStateTime::ACT_PDN            0                       # Time in different power states
system.mem_ctrls_1.actEnergy               3697142400                       # Energy for activate commands per rank (pJ)
system.mem_ctrls_1.preEnergy               2017290000                       # Energy for precharge commands per rank (pJ)
system.mem_ctrls_1.readEnergy             25289191200                       # Energy for read commands per rank (pJ)
system.mem_ctrls_1.writeEnergy            20953598400                       # Energy for write commands per rank (pJ)
system.mem_ctrls_1.refreshEnergy          42175897920                       # Energy for refresh commands per rank (pJ)
system.mem_ctrls_1.actBackEnergy         229121764560                       # Energy for active background per rank (pJ)
system.mem_ctrls_1.preBackEnergy         186453723000                       # Energy for precharge background per rank (pJ)
system.mem_ctrls_1.totalEnergy           509708607480                       # Total energy per rank (pJ)
system.mem_ctrls_1.averagePower            789.353084                       # Core power per rank (mW)
system.mem_ctrls_1.memoryStateTime::IDLE 305371311500                       # Time in different power states
system.mem_ctrls_1.memoryStateTime::REF   21562320000                       # Time in different power states
system.mem_ctrls_1.memoryStateTime::PRE_PDN            0                       # Time in different power states
system.mem_ctrls_1.memoryStateTime::ACT  318798321500                       # Time in different power states
system.mem_ctrls_1.memoryStateTime::ACT_PDN            0                       # Time in different power states
system.cpu_voltage_domain.voltage                   1                       # Voltage in Volts
system.cpu_clk_domain.clock                       500                       # Clock period in ticks
system.cpu.apic_clk_domain.clock                 8000                       # Clock period in ticks
system.cpu.workload.num_syscalls                  108                       # Number of system calls
system.cpu.numCycles                       1291466237                       # number of cpu cycles simulated
system.cpu.numWorkItemsStarted                      0                       # number of work items this cpu started
system.cpu.numWorkItemsCompleted                    0                       # number of work items this cpu completed
system.cpu.committedInsts                    50000000                       # Number of instructions committed
system.cpu.committedOps                      95981250                       # Number of ops (including micro ops) committed
system.cpu.num_int_alu_accesses              95975785                       # Number of integer alu accesses
system.cpu.num_fp_alu_accesses               51833393                       # Number of float alu accesses
system.cpu.num_func_calls                        7602                       # number of times a function call or return occured
system.cpu.num_conditional_control_insts      6532565                       # number of instructions that are conditional controls
system.cpu.num_int_insts                     95975785                       # number of integer instructions
system.cpu.num_fp_insts                      51833393                       # number of float instructions
system.cpu.num_int_register_reads           219093278                       # number of times the integer registers were read
system.cpu.num_int_register_writes           37404612                       # number of times the integer registers were written
system.cpu.num_fp_register_reads             51836929                       # number of times the floating registers were read
system.cpu.num_fp_register_writes                4221                       # number of times the floating registers were written
system.cpu.num_cc_register_reads             34496135                       # number of times the CC registers were read
system.cpu.num_cc_register_writes            29304313                       # number of times the CC registers were written
system.cpu.num_mem_refs                      53378424                       # number of memory refs
system.cpu.num_load_insts                     1350127                       # Number of load instructions
system.cpu.num_store_insts                   52028297                       # Number of store instructions
system.cpu.num_idle_cycles                          0                       # Number of idle cycles
system.cpu.num_busy_cycles                 1291466237                       # Number of busy cycles
system.cpu.not_idle_fraction                        1                       # Percentage of non-idle cycles
system.cpu.idle_fraction                            0                       # Percentage of idle cycles
system.cpu.Branches                           6543945                       # Number of branches fetched
system.cpu.op_class::No_OpClass                  1613      0.00%      0.00% # Class of executed instruction
system.cpu.op_class::IntAlu                  42596797     44.38%     44.38% # Class of executed instruction
system.cpu.op_class::IntMult                      725      0.00%     44.38% # Class of executed instruction
system.cpu.op_class::IntDiv                        21      0.00%     44.38% # Class of executed instruction
system.cpu.op_class::FloatAdd                    3670      0.00%     44.39% # Class of executed instruction
system.cpu.op_class::FloatCmp                       0      0.00%     44.39% # Class of executed instruction
system.cpu.op_class::FloatCvt                       0      0.00%     44.39% # Class of executed instruction
system.cpu.op_class::FloatMult                      0      0.00%     44.39% # Class of executed instruction
system.cpu.op_class::FloatDiv                       0      0.00%     44.39% # Class of executed instruction
system.cpu.op_class::FloatSqrt                      0      0.00%     44.39% # Class of executed instruction
system.cpu.op_class::SimdAdd                        0      0.00%     44.39% # Class of executed instruction
system.cpu.op_class::SimdAddAcc                     0      0.00%     44.39% # Class of executed instruction
system.cpu.op_class::SimdAlu                        0      0.00%     44.39% # Class of executed instruction
system.cpu.op_class::SimdCmp                        0      0.00%     44.39% # Class of executed instruction
system.cpu.op_class::SimdCvt                        0      0.00%     44.39% # Class of executed instruction
system.cpu.op_class::SimdMisc                       0      0.00%     44.39% # Class of executed instruction
system.cpu.op_class::SimdMult                       0      0.00%     44.39% # Class of executed instruction
system.cpu.op_class::SimdMultAcc                    0      0.00%     44.39% # Class of executed instruction
system.cpu.op_class::SimdShift                      0      0.00%     44.39% # Class of executed instruction
system.cpu.op_class::SimdShiftAcc                   0      0.00%     44.39% # Class of executed instruction
system.cpu.op_class::SimdSqrt                       0      0.00%     44.39% # Class of executed instruction
system.cpu.op_class::SimdFloatAdd                   0      0.00%     44.39% # Class of executed instruction
system.cpu.op_class::SimdFloatAlu                   0      0.00%     44.39% # Class of executed instruction
system.cpu.op_class::SimdFloatCmp                   0      0.00%     44.39% # Class of executed instruction
system.cpu.op_class::SimdFloatCvt                   0      0.00%     44.39% # Class of executed instruction
system.cpu.op_class::SimdFloatDiv                   0      0.00%     44.39% # Class of executed instruction
system.cpu.op_class::SimdFloatMisc                  0      0.00%     44.39% # Class of executed instruction
system.cpu.op_class::SimdFloatMult                  0      0.00%     44.39% # Class of executed instruction
system.cpu.op_class::SimdFloatMultAcc               0      0.00%     44.39% # Class of executed instruction
system.cpu.op_class::SimdFloatSqrt                  0      0.00%     44.39% # Class of executed instruction
system.cpu.op_class::MemRead                  1350127      1.41%     45.79% # Class of executed instruction
system.cpu.op_class::MemWrite                52028297     54.21%    100.00% # Class of executed instruction
system.cpu.op_class::IprAccess                      0      0.00%    100.00% # Class of executed instruction
system.cpu.op_class::InstPrefetch                   0      0.00%    100.00% # Class of executed instruction
system.cpu.op_class::total                   95981250                       # Class of executed instruction
system.cpu.dcache.tags.replacements           6479853                       # number of replacements
system.cpu.dcache.tags.tagsinuse          2043.067942                       # Cycle average of tags in use
system.cpu.dcache.tags.total_refs            46896537                       # Total number of references to valid blocks.
system.cpu.dcache.tags.sampled_refs           6481901                       # Sample count of references to valid blocks.
system.cpu.dcache.tags.avg_refs              7.234997                       # Average number of references to valid blocks.
system.cpu.dcache.tags.warmup_cycle        7631751500                       # Cycle when the warmup percentage was hit.
system.cpu.dcache.tags.occ_blocks::cpu.data  2043.067942                       # Average occupied blocks per requestor
system.cpu.dcache.tags.occ_percent::cpu.data     0.997592                       # Average percentage of cache occupancy
system.cpu.dcache.tags.occ_percent::total     0.997592                       # Average percentage of cache occupancy
system.cpu.dcache.tags.occ_task_id_blocks::1024         2048                       # Occupied blocks per task id
system.cpu.dcache.tags.age_task_id_blocks_1024::0          104                       # Occupied blocks per task id
system.cpu.dcache.tags.age_task_id_blocks_1024::1          910                       # Occupied blocks per task id
system.cpu.dcache.tags.age_task_id_blocks_1024::2         1034                       # Occupied blocks per task id
system.cpu.dcache.tags.occ_task_id_percent::1024            1                       # Percentage of cache occupancy per task id
system.cpu.dcache.tags.tag_accesses         219995653                       # Number of tag accesses
system.cpu.dcache.tags.data_accesses        219995653                       # Number of data accesses
system.cpu.dcache.ReadReq_hits::cpu.data      1349780                       # number of ReadReq hits
system.cpu.dcache.ReadReq_hits::total         1349780                       # number of ReadReq hits
system.cpu.dcache.WriteReq_hits::cpu.data     45546757                       # number of WriteReq hits
system.cpu.dcache.WriteReq_hits::total       45546757                       # number of WriteReq hits
system.cpu.dcache.demand_hits::cpu.data      46896537                       # number of demand (read+write) hits
system.cpu.dcache.demand_hits::total         46896537                       # number of demand (read+write) hits
system.cpu.dcache.overall_hits::cpu.data     46896537                       # number of overall hits
system.cpu.dcache.overall_hits::total        46896537                       # number of overall hits
system.cpu.dcache.ReadReq_misses::cpu.data          351                       # number of ReadReq misses
system.cpu.dcache.ReadReq_misses::total           351                       # number of ReadReq misses
system.cpu.dcache.WriteReq_misses::cpu.data      6481550                       # number of WriteReq misses
system.cpu.dcache.WriteReq_misses::total      6481550                       # number of WriteReq misses
system.cpu.dcache.demand_misses::cpu.data      6481901                       # number of demand (read+write) misses
system.cpu.dcache.demand_misses::total        6481901                       # number of demand (read+write) misses
system.cpu.dcache.overall_misses::cpu.data      6481901                       # number of overall misses
system.cpu.dcache.overall_misses::total       6481901                       # number of overall misses
system.cpu.dcache.ReadReq_miss_latency::cpu.data     28267500                       # number of ReadReq miss cycles
system.cpu.dcache.ReadReq_miss_latency::total     28267500                       # number of ReadReq miss cycles
system.cpu.dcache.WriteReq_miss_latency::cpu.data 527974562000                       # number of WriteReq miss cycles
system.cpu.dcache.WriteReq_miss_latency::total 527974562000                       # number of WriteReq miss cycles
system.cpu.dcache.demand_miss_latency::cpu.data 528002829500                       # number of demand (read+write) miss cycles
system.cpu.dcache.demand_miss_latency::total 528002829500                       # number of demand (read+write) miss cycles
system.cpu.dcache.overall_miss_latency::cpu.data 528002829500                       # number of overall miss cycles
system.cpu.dcache.overall_miss_latency::total 528002829500                       # number of overall miss cycles
system.cpu.dcache.ReadReq_accesses::cpu.data      1350131                       # number of ReadReq accesses(hits+misses)
system.cpu.dcache.ReadReq_accesses::total      1350131                       # number of ReadReq accesses(hits+misses)
system.cpu.dcache.WriteReq_accesses::cpu.data     52028307                       # number of WriteReq accesses(hits+misses)
system.cpu.dcache.WriteReq_accesses::total     52028307                       # number of WriteReq accesses(hits+misses)
system.cpu.dcache.demand_accesses::cpu.data     53378438                       # number of demand (read+write) accesses
system.cpu.dcache.demand_accesses::total     53378438                       # number of demand (read+write) accesses
system.cpu.dcache.overall_accesses::cpu.data     53378438                       # number of overall (read+write) accesses
system.cpu.dcache.overall_accesses::total     53378438                       # number of overall (read+write) accesses
system.cpu.dcache.ReadReq_miss_rate::cpu.data     0.000260                       # miss rate for ReadReq accesses
system.cpu.dcache.ReadReq_miss_rate::total     0.000260                       # miss rate for ReadReq accesses
system.cpu.dcache.WriteReq_miss_rate::cpu.data     0.124577                       # miss rate for WriteReq accesses
system.cpu.dcache.WriteReq_miss_rate::total     0.124577                       # miss rate for WriteReq accesses
system.cpu.dcache.demand_miss_rate::cpu.data     0.121433                       # miss rate for demand accesses
system.cpu.dcache.demand_miss_rate::total     0.121433                       # miss rate for demand accesses
system.cpu.dcache.overall_miss_rate::cpu.data     0.121433                       # miss rate for overall accesses
system.cpu.dcache.overall_miss_rate::total     0.121433                       # miss rate for overall accesses
system.cpu.dcache.ReadReq_avg_miss_latency::cpu.data 80534.188034                       # average ReadReq miss latency
system.cpu.dcache.ReadReq_avg_miss_latency::total 80534.188034                       # average ReadReq miss latency
system.cpu.dcache.WriteReq_avg_miss_latency::cpu.data 81458.071295                       # average WriteReq miss latency
system.cpu.dcache.WriteReq_avg_miss_latency::total 81458.071295                       # average WriteReq miss latency
system.cpu.dcache.demand_avg_miss_latency::cpu.data 81458.021266                       # average overall miss latency
system.cpu.dcache.demand_avg_miss_latency::total 81458.021266                       # average overall miss latency
system.cpu.dcache.overall_avg_miss_latency::cpu.data 81458.021266                       # average overall miss latency
system.cpu.dcache.overall_avg_miss_latency::total 81458.021266                       # average overall miss latency
system.cpu.dcache.blocked_cycles::no_mshrs            0                       # number of cycles access was blocked
system.cpu.dcache.blocked_cycles::no_targets            0                       # number of cycles access was blocked
system.cpu.dcache.blocked::no_mshrs                 0                       # number of cycles access was blocked
system.cpu.dcache.blocked::no_targets               0                       # number of cycles access was blocked
system.cpu.dcache.avg_blocked_cycles::no_mshrs          nan                       # average number of cycles each access was blocked
system.cpu.dcache.avg_blocked_cycles::no_targets          nan                       # average number of cycles each access was blocked
system.cpu.dcache.fast_writes                       0                       # number of fast writes performed
system.cpu.dcache.cache_copies                      0                       # number of cache copies performed
system.cpu.dcache.writebacks::writebacks      6479589                       # number of writebacks
system.cpu.dcache.writebacks::total           6479589                       # number of writebacks
system.cpu.dcache.ReadReq_mshr_misses::cpu.data          351                       # number of ReadReq MSHR misses
system.cpu.dcache.ReadReq_mshr_misses::total          351                       # number of ReadReq MSHR misses
system.cpu.dcache.WriteReq_mshr_misses::cpu.data      6481550                       # number of WriteReq MSHR misses
system.cpu.dcache.WriteReq_mshr_misses::total      6481550                       # number of WriteReq MSHR misses
system.cpu.dcache.demand_mshr_misses::cpu.data      6481901                       # number of demand (read+write) MSHR misses
system.cpu.dcache.demand_mshr_misses::total      6481901                       # number of demand (read+write) MSHR misses
system.cpu.dcache.overall_mshr_misses::cpu.data      6481901                       # number of overall MSHR misses
system.cpu.dcache.overall_mshr_misses::total      6481901                       # number of overall MSHR misses
system.cpu.dcache.ReadReq_mshr_miss_latency::cpu.data     27916500                       # number of ReadReq MSHR miss cycles
system.cpu.dcache.ReadReq_mshr_miss_latency::total     27916500                       # number of ReadReq MSHR miss cycles
system.cpu.dcache.WriteReq_mshr_miss_latency::cpu.data 521493012000                       # number of WriteReq MSHR miss cycles
system.cpu.dcache.WriteReq_mshr_miss_latency::total 521493012000                       # number of WriteReq MSHR miss cycles
system.cpu.dcache.demand_mshr_miss_latency::cpu.data 521520928500                       # number of demand (read+write) MSHR miss cycles
system.cpu.dcache.demand_mshr_miss_latency::total 521520928500                       # number of demand (read+write) MSHR miss cycles
system.cpu.dcache.overall_mshr_miss_latency::cpu.data 521520928500                       # number of overall MSHR miss cycles
system.cpu.dcache.overall_mshr_miss_latency::total 521520928500                       # number of overall MSHR miss cycles
system.cpu.dcache.ReadReq_mshr_miss_rate::cpu.data     0.000260                       # mshr miss rate for ReadReq accesses
system.cpu.dcache.ReadReq_mshr_miss_rate::total     0.000260                       # mshr miss rate for ReadReq accesses
system.cpu.dcache.WriteReq_mshr_miss_rate::cpu.data     0.124577                       # mshr miss rate for WriteReq accesses
system.cpu.dcache.WriteReq_mshr_miss_rate::total     0.124577                       # mshr miss rate for WriteReq accesses
system.cpu.dcache.demand_mshr_miss_rate::cpu.data     0.121433                       # mshr miss rate for demand accesses
system.cpu.dcache.demand_mshr_miss_rate::total     0.121433                       # mshr miss rate for demand accesses
system.cpu.dcache.overall_mshr_miss_rate::cpu.data     0.121433                       # mshr miss rate for overall accesses
system.cpu.dcache.overall_mshr_miss_rate::total     0.121433                       # mshr miss rate for overall accesses
system.cpu.dcache.ReadReq_avg_mshr_miss_latency::cpu.data 79534.188034                       # average ReadReq mshr miss latency
system.cpu.dcache.ReadReq_avg_mshr_miss_latency::total 79534.188034                       # average ReadReq mshr miss latency
system.cpu.dcache.WriteReq_avg_mshr_miss_latency::cpu.data 80458.071295                       # average WriteReq mshr miss latency
system.cpu.dcache.WriteReq_avg_mshr_miss_latency::total 80458.071295                       # average WriteReq mshr miss latency
system.cpu.dcache.demand_avg_mshr_miss_latency::cpu.data 80458.021266                       # average overall mshr miss latency
system.cpu.dcache.demand_avg_mshr_miss_latency::total 80458.021266                       # average overall mshr miss latency
system.cpu.dcache.overall_avg_mshr_miss_latency::cpu.data 80458.021266                       # average overall mshr miss latency
system.cpu.dcache.overall_avg_mshr_miss_latency::total 80458.021266                       # average overall mshr miss latency
system.cpu.dcache.no_allocate_misses                0                       # Number of misses that were no-allocate
system.cpu.dtb_walker_cache.tags.replacements            0                       # number of replacements
system.cpu.dtb_walker_cache.tags.tagsinuse            0                       # Cycle average of tags in use
system.cpu.dtb_walker_cache.tags.total_refs            0                       # Total number of references to valid blocks.
system.cpu.dtb_walker_cache.tags.sampled_refs            0                       # Sample count of references to valid blocks.
system.cpu.dtb_walker_cache.tags.avg_refs          nan                       # Average number of references to valid blocks.
system.cpu.dtb_walker_cache.tags.warmup_cycle            0                       # Cycle when the warmup percentage was hit.
system.cpu.dtb_walker_cache.tags.tag_accesses            0                       # Number of tag accesses
system.cpu.dtb_walker_cache.tags.data_accesses            0                       # Number of data accesses
system.cpu.dtb_walker_cache.blocked_cycles::no_mshrs            0                       # number of cycles access was blocked
system.cpu.dtb_walker_cache.blocked_cycles::no_targets            0                       # number of cycles access was blocked
system.cpu.dtb_walker_cache.blocked::no_mshrs            0                       # number of cycles access was blocked
system.cpu.dtb_walker_cache.blocked::no_targets            0                       # number of cycles access was blocked
system.cpu.dtb_walker_cache.avg_blocked_cycles::no_mshrs          nan                       # average number of cycles each access was blocked
system.cpu.dtb_walker_cache.avg_blocked_cycles::no_targets          nan                       # average number of cycles each access was blocked
system.cpu.dtb_walker_cache.fast_writes             0                       # number of fast writes performed
system.cpu.dtb_walker_cache.cache_copies            0                       # number of cache copies performed
system.cpu.dtb_walker_cache.no_allocate_misses            0                       # Number of misses that were no-allocate
system.cpu.icache.tags.replacements                65                       # number of replacements
system.cpu.icache.tags.tagsinuse           508.940439                       # Cycle average of tags in use
system.cpu.icache.tags.total_refs            70767702                       # Total number of references to valid blocks.
system.cpu.icache.tags.sampled_refs               835                       # Sample count of references to valid blocks.
system.cpu.icache.tags.avg_refs          84751.738922                       # Average number of references to valid blocks.
system.cpu.icache.tags.warmup_cycle                 0                       # Cycle when the warmup percentage was hit.
system.cpu.icache.tags.occ_blocks::cpu.inst   508.940439                       # Average occupied blocks per requestor
system.cpu.icache.tags.occ_percent::cpu.inst     0.248506                       # Average percentage of cache occupancy
system.cpu.icache.tags.occ_percent::total     0.248506                       # Average percentage of cache occupancy
system.cpu.icache.tags.occ_task_id_blocks::1024          770                       # Occupied blocks per task id
system.cpu.icache.tags.age_task_id_blocks_1024::4          770                       # Occupied blocks per task id
system.cpu.icache.tags.occ_task_id_percent::1024     0.375977                       # Percentage of cache occupancy per task id
system.cpu.icache.tags.tag_accesses         141537909                       # Number of tag accesses
system.cpu.icache.tags.data_accesses        141537909                       # Number of data accesses
system.cpu.icache.ReadReq_hits::cpu.inst     70767702                       # number of ReadReq hits
system.cpu.icache.ReadReq_hits::total        70767702                       # number of ReadReq hits
system.cpu.icache.demand_hits::cpu.inst      70767702                       # number of demand (read+write) hits
system.cpu.icache.demand_hits::total         70767702                       # number of demand (read+write) hits
system.cpu.icache.overall_hits::cpu.inst     70767702                       # number of overall hits
system.cpu.icache.overall_hits::total        70767702                       # number of overall hits
system.cpu.icache.ReadReq_misses::cpu.inst          835                       # number of ReadReq misses
system.cpu.icache.ReadReq_misses::total           835                       # number of ReadReq misses
system.cpu.icache.demand_misses::cpu.inst          835                       # number of demand (read+write) misses
system.cpu.icache.demand_misses::total            835                       # number of demand (read+write) misses
system.cpu.icache.overall_misses::cpu.inst          835                       # number of overall misses
system.cpu.icache.overall_misses::total           835                       # number of overall misses
system.cpu.icache.ReadReq_miss_latency::cpu.inst     66158500                       # number of ReadReq miss cycles
system.cpu.icache.ReadReq_miss_latency::total     66158500                       # number of ReadReq miss cycles
system.cpu.icache.demand_miss_latency::cpu.inst     66158500                       # number of demand (read+write) miss cycles
system.cpu.icache.demand_miss_latency::total     66158500                       # number of demand (read+write) miss cycles
system.cpu.icache.overall_miss_latency::cpu.inst     66158500                       # number of overall miss cycles
system.cpu.icache.overall_miss_latency::total     66158500                       # number of overall miss cycles
system.cpu.icache.ReadReq_accesses::cpu.inst     70768537                       # number of ReadReq accesses(hits+misses)
system.cpu.icache.ReadReq_accesses::total     70768537                       # number of ReadReq accesses(hits+misses)
system.cpu.icache.demand_accesses::cpu.inst     70768537                       # number of demand (read+write) accesses
system.cpu.icache.demand_accesses::total     70768537                       # number of demand (read+write) accesses
system.cpu.icache.overall_accesses::cpu.inst     70768537                       # number of overall (read+write) accesses
system.cpu.icache.overall_accesses::total     70768537                       # number of overall (read+write) accesses
system.cpu.icache.ReadReq_miss_rate::cpu.inst     0.000012                       # miss rate for ReadReq accesses
system.cpu.icache.ReadReq_miss_rate::total     0.000012                       # miss rate for ReadReq accesses
system.cpu.icache.demand_miss_rate::cpu.inst     0.000012                       # miss rate for demand accesses
system.cpu.icache.demand_miss_rate::total     0.000012                       # miss rate for demand accesses
system.cpu.icache.overall_miss_rate::cpu.inst     0.000012                       # miss rate for overall accesses
system.cpu.icache.overall_miss_rate::total     0.000012                       # miss rate for overall accesses
system.cpu.icache.ReadReq_avg_miss_latency::cpu.inst 79231.736527                       # average ReadReq miss latency
system.cpu.icache.ReadReq_avg_miss_latency::total 79231.736527                       # average ReadReq miss latency
system.cpu.icache.demand_avg_miss_latency::cpu.inst 79231.736527                       # average overall miss latency
system.cpu.icache.demand_avg_miss_latency::total 79231.736527                       # average overall miss latency
system.cpu.icache.overall_avg_miss_latency::cpu.inst 79231.736527                       # average overall miss latency
system.cpu.icache.overall_avg_miss_latency::total 79231.736527                       # average overall miss latency
system.cpu.icache.blocked_cycles::no_mshrs            0                       # number of cycles access was blocked
system.cpu.icache.blocked_cycles::no_targets            0                       # number of cycles access was blocked
system.cpu.icache.blocked::no_mshrs                 0                       # number of cycles access was blocked
system.cpu.icache.blocked::no_targets               0                       # number of cycles access was blocked
system.cpu.icache.avg_blocked_cycles::no_mshrs          nan                       # average number of cycles each access was blocked
system.cpu.icache.avg_blocked_cycles::no_targets          nan                       # average number of cycles each access was blocked
system.cpu.icache.fast_writes                       0                       # number of fast writes performed
system.cpu.icache.cache_copies                      0                       # number of cache copies performed
system.cpu.icache.writebacks::writebacks           65                       # number of writebacks
system.cpu.icache.writebacks::total                65                       # number of writebacks
system.cpu.icache.ReadReq_mshr_misses::cpu.inst          835                       # number of ReadReq MSHR misses
system.cpu.icache.ReadReq_mshr_misses::total          835                       # number of ReadReq MSHR misses
system.cpu.icache.demand_mshr_misses::cpu.inst          835                       # number of demand (read+write) MSHR misses
system.cpu.icache.demand_mshr_misses::total          835                       # number of demand (read+write) MSHR misses
system.cpu.icache.overall_mshr_misses::cpu.inst          835                       # number of overall MSHR misses
system.cpu.icache.overall_mshr_misses::total          835                       # number of overall MSHR misses
system.cpu.icache.ReadReq_mshr_miss_latency::cpu.inst     65323500                       # number of ReadReq MSHR miss cycles
system.cpu.icache.ReadReq_mshr_miss_latency::total     65323500                       # number of ReadReq MSHR miss cycles
system.cpu.icache.demand_mshr_miss_latency::cpu.inst     65323500                       # number of demand (read+write) MSHR miss cycles
system.cpu.icache.demand_mshr_miss_latency::total     65323500                       # number of demand (read+write) MSHR miss cycles
system.cpu.icache.overall_mshr_miss_latency::cpu.inst     65323500                       # number of overall MSHR miss cycles
system.cpu.icache.overall_mshr_miss_latency::total     65323500                       # number of overall MSHR miss cycles
system.cpu.icache.ReadReq_mshr_miss_rate::cpu.inst     0.000012                       # mshr miss rate for ReadReq accesses
system.cpu.icache.ReadReq_mshr_miss_rate::total     0.000012                       # mshr miss rate for ReadReq accesses
system.cpu.icache.demand_mshr_miss_rate::cpu.inst     0.000012                       # mshr miss rate for demand accesses
system.cpu.icache.demand_mshr_miss_rate::total     0.000012                       # mshr miss rate for demand accesses
system.cpu.icache.overall_mshr_miss_rate::cpu.inst     0.000012                       # mshr miss rate for overall accesses
system.cpu.icache.overall_mshr_miss_rate::total     0.000012                       # mshr miss rate for overall accesses
system.cpu.icache.ReadReq_avg_mshr_miss_latency::cpu.inst 78231.736527                       # average ReadReq mshr miss latency
system.cpu.icache.ReadReq_avg_mshr_miss_latency::total 78231.736527                       # average ReadReq mshr miss latency
system.cpu.icache.demand_avg_mshr_miss_latency::cpu.inst 78231.736527                       # average overall mshr miss latency
system.cpu.icache.demand_avg_mshr_miss_latency::total 78231.736527                       # average overall mshr miss latency
system.cpu.icache.overall_avg_mshr_miss_latency::cpu.inst 78231.736527                       # average overall mshr miss latency
system.cpu.icache.overall_avg_mshr_miss_latency::total 78231.736527                       # average overall mshr miss latency
system.cpu.icache.no_allocate_misses                0                       # Number of misses that were no-allocate
system.cpu.itb_walker_cache.tags.replacements            0                       # number of replacements
system.cpu.itb_walker_cache.tags.tagsinuse            0                       # Cycle average of tags in use
system.cpu.itb_walker_cache.tags.total_refs            0                       # Total number of references to valid blocks.
system.cpu.itb_walker_cache.tags.sampled_refs            0                       # Sample count of references to valid blocks.
system.cpu.itb_walker_cache.tags.avg_refs          nan                       # Average number of references to valid blocks.
system.cpu.itb_walker_cache.tags.warmup_cycle            0                       # Cycle when the warmup percentage was hit.
system.cpu.itb_walker_cache.tags.tag_accesses            0                       # Number of tag accesses
system.cpu.itb_walker_cache.tags.data_accesses            0                       # Number of data accesses
system.cpu.itb_walker_cache.blocked_cycles::no_mshrs            0                       # number of cycles access was blocked
system.cpu.itb_walker_cache.blocked_cycles::no_targets            0                       # number of cycles access was blocked
system.cpu.itb_walker_cache.blocked::no_mshrs            0                       # number of cycles access was blocked
system.cpu.itb_walker_cache.blocked::no_targets            0                       # number of cycles access was blocked
system.cpu.itb_walker_cache.avg_blocked_cycles::no_mshrs          nan                       # average number of cycles each access was blocked
system.cpu.itb_walker_cache.avg_blocked_cycles::no_targets          nan                       # average number of cycles each access was blocked
system.cpu.itb_walker_cache.fast_writes             0                       # number of fast writes performed
system.cpu.itb_walker_cache.cache_copies            0                       # number of cache copies performed
system.cpu.itb_walker_cache.no_allocate_misses            0                       # Number of misses that were no-allocate
system.l2.tags.replacements                   6466323                       # number of replacements
system.l2.tags.tagsinuse                 14157.573014                       # Cycle average of tags in use
system.l2.tags.total_refs                         392                       # Total number of references to valid blocks.
system.l2.tags.sampled_refs                   6480659                       # Sample count of references to valid blocks.
system.l2.tags.avg_refs                      0.000060                       # Average number of references to valid blocks.
system.l2.tags.warmup_cycle                         0                       # Cycle when the warmup percentage was hit.
system.l2.tags.occ_blocks::writebacks    14151.675462                       # Average occupied blocks per requestor
system.l2.tags.occ_blocks::cpu.inst          4.373050                       # Average occupied blocks per requestor
system.l2.tags.occ_blocks::cpu.data          1.524502                       # Average occupied blocks per requestor
system.l2.tags.occ_percent::writebacks       0.863750                       # Average percentage of cache occupancy
system.l2.tags.occ_percent::cpu.inst         0.000267                       # Average percentage of cache occupancy
system.l2.tags.occ_percent::cpu.data         0.000093                       # Average percentage of cache occupancy
system.l2.tags.occ_percent::total            0.864110                       # Average percentage of cache occupancy
system.l2.tags.occ_task_id_blocks::1024         14336                       # Occupied blocks per task id
system.l2.tags.age_task_id_blocks_1024::0          104                       # Occupied blocks per task id
system.l2.tags.age_task_id_blocks_1024::1          910                       # Occupied blocks per task id
system.l2.tags.age_task_id_blocks_1024::2         9139                       # Occupied blocks per task id
system.l2.tags.age_task_id_blocks_1024::3         4183                       # Occupied blocks per task id
system.l2.tags.occ_task_id_percent::1024     0.875000                       # Percentage of cache occupancy per task id
system.l2.tags.tag_accesses                  25924862                       # Number of tag accesses
system.l2.tags.data_accesses                 25924862                       # Number of data accesses
system.l2.WritebackDirty_hits::writebacks      6479589                       # number of WritebackDirty hits
system.l2.WritebackDirty_hits::total          6479589                       # number of WritebackDirty hits
system.l2.WritebackClean_hits::writebacks           65                       # number of WritebackClean hits
system.l2.WritebackClean_hits::total               65                       # number of WritebackClean hits
system.l2.ReadExReq_hits::cpu.data                 11                       # number of ReadExReq hits
system.l2.ReadExReq_hits::total                    11                       # number of ReadExReq hits
system.l2.ReadCleanReq_hits::cpu.inst              34                       # number of ReadCleanReq hits
system.l2.ReadCleanReq_hits::total                 34                       # number of ReadCleanReq hits
system.l2.ReadSharedReq_hits::cpu.data             14                       # number of ReadSharedReq hits
system.l2.ReadSharedReq_hits::total                14                       # number of ReadSharedReq hits
system.l2.demand_hits::cpu.inst                    34                       # number of demand (read+write) hits
system.l2.demand_hits::cpu.data                    25                       # number of demand (read+write) hits
system.l2.demand_hits::total                       59                       # number of demand (read+write) hits
system.l2.overall_hits::cpu.inst                   34                       # number of overall hits
system.l2.overall_hits::cpu.data                   25                       # number of overall hits
system.l2.overall_hits::total                      59                       # number of overall hits
system.l2.ReadExReq_misses::cpu.data          6481539                       # number of ReadExReq misses
system.l2.ReadExReq_misses::total             6481539                       # number of ReadExReq misses
system.l2.ReadCleanReq_misses::cpu.inst           801                       # number of ReadCleanReq misses
system.l2.ReadCleanReq_misses::total              801                       # number of ReadCleanReq misses
system.l2.ReadSharedReq_misses::cpu.data          337                       # number of ReadSharedReq misses
system.l2.ReadSharedReq_misses::total             337                       # number of ReadSharedReq misses
system.l2.demand_misses::cpu.inst                 801                       # number of demand (read+write) misses
system.l2.demand_misses::cpu.data             6481876                       # number of demand (read+write) misses
system.l2.demand_misses::total                6482677                       # number of demand (read+write) misses
system.l2.overall_misses::cpu.inst                801                       # number of overall misses
system.l2.overall_misses::cpu.data            6481876                       # number of overall misses
system.l2.overall_misses::total               6482677                       # number of overall misses
system.l2.ReadExReq_miss_latency::cpu.data 511770571000                       # number of ReadExReq miss cycles
system.l2.ReadExReq_miss_latency::total  511770571000                       # number of ReadExReq miss cycles
system.l2.ReadCleanReq_miss_latency::cpu.inst     63708000                       # number of ReadCleanReq miss cycles
system.l2.ReadCleanReq_miss_latency::total     63708000                       # number of ReadCleanReq miss cycles
system.l2.ReadSharedReq_miss_latency::cpu.data     27241500                       # number of ReadSharedReq miss cycles
system.l2.ReadSharedReq_miss_latency::total     27241500                       # number of ReadSharedReq miss cycles
system.l2.demand_miss_latency::cpu.inst      63708000                       # number of demand (read+write) miss cycles
system.l2.demand_miss_latency::cpu.data  511797812500                       # number of demand (read+write) miss cycles
system.l2.demand_miss_latency::total     511861520500                       # number of demand (read+write) miss cycles
system.l2.overall_miss_latency::cpu.inst     63708000                       # number of overall miss cycles
system.l2.overall_miss_latency::cpu.data 511797812500                       # number of overall miss cycles
system.l2.overall_miss_latency::total    511861520500                       # number of overall miss cycles
system.l2.WritebackDirty_accesses::writebacks      6479589                       # number of WritebackDirty accesses(hits+misses)
system.l2.WritebackDirty_accesses::total      6479589                       # number of WritebackDirty accesses(hits+misses)
system.l2.WritebackClean_accesses::writebacks           65                       # number of WritebackClean accesses(hits+misses)
system.l2.WritebackClean_accesses::total           65                       # number of WritebackClean accesses(hits+misses)
system.l2.ReadExReq_accesses::cpu.data        6481550                       # number of ReadExReq accesses(hits+misses)
system.l2.ReadExReq_accesses::total           6481550                       # number of ReadExReq accesses(hits+misses)
system.l2.ReadCleanReq_accesses::cpu.inst          835                       # number of ReadCleanReq accesses(hits+misses)
system.l2.ReadCleanReq_accesses::total            835                       # number of ReadCleanReq accesses(hits+misses)
system.l2.ReadSharedReq_accesses::cpu.data          351                       # number of ReadSharedReq accesses(hits+misses)
system.l2.ReadSharedReq_accesses::total           351                       # number of ReadSharedReq accesses(hits+misses)
system.l2.demand_accesses::cpu.inst               835                       # number of demand (read+write) accesses
system.l2.demand_accesses::cpu.data           6481901                       # number of demand (read+write) accesses
system.l2.demand_accesses::total              6482736                       # number of demand (read+write) accesses
system.l2.overall_accesses::cpu.inst              835                       # number of overall (read+write) accesses
system.l2.overall_accesses::cpu.data          6481901                       # number of overall (read+write) accesses
system.l2.overall_accesses::total             6482736                       # number of overall (read+write) accesses
system.l2.ReadExReq_miss_rate::cpu.data      0.999998                       # miss rate for ReadExReq accesses
system.l2.ReadExReq_miss_rate::total         0.999998                       # miss rate for ReadExReq accesses
system.l2.ReadCleanReq_miss_rate::cpu.inst     0.959281                       # miss rate for ReadCleanReq accesses
system.l2.ReadCleanReq_miss_rate::total      0.959281                       # miss rate for ReadCleanReq accesses
system.l2.ReadSharedReq_miss_rate::cpu.data     0.960114                       # miss rate for ReadSharedReq accesses
system.l2.ReadSharedReq_miss_rate::total     0.960114                       # miss rate for ReadSharedReq accesses
system.l2.demand_miss_rate::cpu.inst         0.959281                       # miss rate for demand accesses
system.l2.demand_miss_rate::cpu.data         0.999996                       # miss rate for demand accesses
system.l2.demand_miss_rate::total            0.999991                       # miss rate for demand accesses
system.l2.overall_miss_rate::cpu.inst        0.959281                       # miss rate for overall accesses
system.l2.overall_miss_rate::cpu.data        0.999996                       # miss rate for overall accesses
system.l2.overall_miss_rate::total           0.999991                       # miss rate for overall accesses
system.l2.ReadExReq_avg_miss_latency::cpu.data 78958.187400                       # average ReadExReq miss latency
system.l2.ReadExReq_avg_miss_latency::total 78958.187400                       # average ReadExReq miss latency
system.l2.ReadCleanReq_avg_miss_latency::cpu.inst 79535.580524                       # average ReadCleanReq miss latency
system.l2.ReadCleanReq_avg_miss_latency::total 79535.580524                       # average ReadCleanReq miss latency
system.l2.ReadSharedReq_avg_miss_latency::cpu.data 80835.311573                       # average ReadSharedReq miss latency
system.l2.ReadSharedReq_avg_miss_latency::total 80835.311573                       # average ReadSharedReq miss latency
system.l2.demand_avg_miss_latency::cpu.inst 79535.580524                       # average overall miss latency
system.l2.demand_avg_miss_latency::cpu.data 78958.284993                       # average overall miss latency
system.l2.demand_avg_miss_latency::total 78958.356324                       # average overall miss latency
system.l2.overall_avg_miss_latency::cpu.inst 79535.580524                       # average overall miss latency
system.l2.overall_avg_miss_latency::cpu.data 78958.284993                       # average overall miss latency
system.l2.overall_avg_miss_latency::total 78958.356324                       # average overall miss latency
system.l2.blocked_cycles::no_mshrs                  0                       # number of cycles access was blocked
system.l2.blocked_cycles::no_targets                0                       # number of cycles access was blocked
system.l2.blocked::no_mshrs                         0                       # number of cycles access was blocked
system.l2.blocked::no_targets                       0                       # number of cycles access was blocked
system.l2.avg_blocked_cycles::no_mshrs            nan                       # average number of cycles each access was blocked
system.l2.avg_blocked_cycles::no_targets          nan                       # average number of cycles each access was blocked
system.l2.fast_writes                               0                       # number of fast writes performed
system.l2.cache_copies                              0                       # number of cache copies performed
system.l2.writebacks::writebacks              6465229                       # number of writebacks
system.l2.writebacks::total                   6465229                       # number of writebacks
system.l2.CleanEvict_mshr_misses::writebacks           52                       # number of CleanEvict MSHR misses
system.l2.CleanEvict_mshr_misses::total            52                       # number of CleanEvict MSHR misses
system.l2.ReadExReq_mshr_misses::cpu.data      6481539                       # number of ReadExReq MSHR misses
system.l2.ReadExReq_mshr_misses::total        6481539                       # number of ReadExReq MSHR misses
system.l2.ReadCleanReq_mshr_misses::cpu.inst          801                       # number of ReadCleanReq MSHR misses
system.l2.ReadCleanReq_mshr_misses::total          801                       # number of ReadCleanReq MSHR misses
system.l2.ReadSharedReq_mshr_misses::cpu.data          337                       # number of ReadSharedReq MSHR misses
system.l2.ReadSharedReq_mshr_misses::total          337                       # number of ReadSharedReq MSHR misses
system.l2.demand_mshr_misses::cpu.inst            801                       # number of demand (read+write) MSHR misses
system.l2.demand_mshr_misses::cpu.data        6481876                       # number of demand (read+write) MSHR misses
system.l2.demand_mshr_misses::total           6482677                       # number of demand (read+write) MSHR misses
system.l2.overall_mshr_misses::cpu.inst           801                       # number of overall MSHR misses
system.l2.overall_mshr_misses::cpu.data       6481876                       # number of overall MSHR misses
system.l2.overall_mshr_misses::total          6482677                       # number of overall MSHR misses
system.l2.ReadExReq_mshr_miss_latency::cpu.data 446955181000                       # number of ReadExReq MSHR miss cycles
system.l2.ReadExReq_mshr_miss_latency::total 446955181000                       # number of ReadExReq MSHR miss cycles
system.l2.ReadCleanReq_mshr_miss_latency::cpu.inst     55698000                       # number of ReadCleanReq MSHR miss cycles
system.l2.ReadCleanReq_mshr_miss_latency::total     55698000                       # number of ReadCleanReq MSHR miss cycles
system.l2.ReadSharedReq_mshr_miss_latency::cpu.data     23871500                       # number of ReadSharedReq MSHR miss cycles
system.l2.ReadSharedReq_mshr_miss_latency::total     23871500                       # number of ReadSharedReq MSHR miss cycles
system.l2.demand_mshr_miss_latency::cpu.inst     55698000                       # number of demand (read+write) MSHR miss cycles
system.l2.demand_mshr_miss_latency::cpu.data 446979052500                       # number of demand (read+write) MSHR miss cycles
system.l2.demand_mshr_miss_latency::total 447034750500                       # number of demand (read+write) MSHR miss cycles
system.l2.overall_mshr_miss_latency::cpu.inst     55698000                       # number of overall MSHR miss cycles
system.l2.overall_mshr_miss_latency::cpu.data 446979052500                       # number of overall MSHR miss cycles
system.l2.overall_mshr_miss_latency::total 447034750500                       # number of overall MSHR miss cycles
system.l2.CleanEvict_mshr_miss_rate::writebacks          inf                       # mshr miss rate for CleanEvict accesses
system.l2.CleanEvict_mshr_miss_rate::total          inf                       # mshr miss rate for CleanEvict accesses
system.l2.ReadExReq_mshr_miss_rate::cpu.data     0.999998                       # mshr miss rate for ReadExReq accesses
system.l2.ReadExReq_mshr_miss_rate::total     0.999998                       # mshr miss rate for ReadExReq accesses
system.l2.ReadCleanReq_mshr_miss_rate::cpu.inst     0.959281                       # mshr miss rate for ReadCleanReq accesses
system.l2.ReadCleanReq_mshr_miss_rate::total     0.959281                       # mshr miss rate for ReadCleanReq accesses
system.l2.ReadSharedReq_mshr_miss_rate::cpu.data     0.960114                       # mshr miss rate for ReadSharedReq accesses
system.l2.ReadSharedReq_mshr_miss_rate::total     0.960114                       # mshr miss rate for ReadSharedReq accesses
system.l2.demand_mshr_miss_rate::cpu.inst     0.959281                       # mshr miss rate for demand accesses
system.l2.demand_mshr_miss_rate::cpu.data     0.999996                       # mshr miss rate for demand accesses
system.l2.demand_mshr_miss_rate::total       0.999991                       # mshr miss rate for demand accesses
system.l2.overall_mshr_miss_rate::cpu.inst     0.959281                       # mshr miss rate for overall accesses
system.l2.overall_mshr_miss_rate::cpu.data     0.999996                       # mshr miss rate for overall accesses
system.l2.overall_mshr_miss_rate::total      0.999991                       # mshr miss rate for overall accesses
system.l2.ReadExReq_avg_mshr_miss_latency::cpu.data 68958.187400                       # average ReadExReq mshr miss latency
system.l2.ReadExReq_avg_mshr_miss_latency::total 68958.187400                       # average ReadExReq mshr miss latency
system.l2.ReadCleanReq_avg_mshr_miss_latency::cpu.inst 69535.580524                       # average ReadCleanReq mshr miss latency
system.l2.ReadCleanReq_avg_mshr_miss_latency::total 69535.580524                       # average ReadCleanReq mshr miss latency
system.l2.ReadSharedReq_avg_mshr_miss_latency::cpu.data 70835.311573                       # average ReadSharedReq mshr miss latency
system.l2.ReadSharedReq_avg_mshr_miss_latency::total 70835.311573                       # average ReadSharedReq mshr miss latency
system.l2.demand_avg_mshr_miss_latency::cpu.inst 69535.580524                       # average overall mshr miss latency
system.l2.demand_avg_mshr_miss_latency::cpu.data 68958.284993                       # average overall mshr miss latency
system.l2.demand_avg_mshr_miss_latency::total 68958.356324                       # average overall mshr miss latency
system.l2.overall_avg_mshr_miss_latency::cpu.inst 69535.580524                       # average overall mshr miss latency
system.l2.overall_avg_mshr_miss_latency::cpu.data 68958.284993                       # average overall mshr miss latency
system.l2.overall_avg_mshr_miss_latency::total 68958.356324                       # average overall mshr miss latency
system.l2.no_allocate_misses                        0                       # Number of misses that were no-allocate
system.membus.trans_dist::ReadResp               1138                       # Transaction distribution
system.membus.trans_dist::WritebackDirty      6465229                       # Transaction distribution
system.membus.trans_dist::CleanEvict              294                       # Transaction distribution
system.membus.trans_dist::ReadExReq           6481539                       # Transaction distribution
system.membus.trans_dist::ReadExResp          6481539                       # Transaction distribution
system.membus.trans_dist::ReadSharedReq          1138                       # Transaction distribution
system.membus.pkt_count_system.l2.mem_side::system.mem_ctrls.port     19430877                       # Packet count per connected master and slave (bytes)
system.membus.pkt_count_system.l2.mem_side::total     19430877                       # Packet count per connected master and slave (bytes)
system.membus.pkt_count::total               19430877                       # Packet count per connected master and slave (bytes)
system.membus.pkt_size_system.l2.mem_side::system.mem_ctrls.port    828665984                       # Cumulative packet size per connected master and slave (bytes)
system.membus.pkt_size_system.l2.mem_side::total    828665984                       # Cumulative packet size per connected master and slave (bytes)
system.membus.pkt_size::total               828665984                       # Cumulative packet size per connected master and slave (bytes)
system.membus.snoops                                0                       # Total snoops (count)
system.membus.snoop_fanout::samples          12948200                       # Request fanout histogram
system.membus.snoop_fanout::mean                    0                       # Request fanout histogram
system.membus.snoop_fanout::stdev                   0                       # Request fanout histogram
system.membus.snoop_fanout::underflows              0      0.00%      0.00% # Request fanout histogram
system.membus.snoop_fanout::0                12948200    100.00%    100.00% # Request fanout histogram
system.membus.snoop_fanout::1                       0      0.00%    100.00% # Request fanout histogram
system.membus.snoop_fanout::overflows               0      0.00%    100.00% # Request fanout histogram
system.membus.snoop_fanout::min_value               0                       # Request fanout histogram
system.membus.snoop_fanout::max_value               0                       # Request fanout histogram
system.membus.snoop_fanout::total            12948200                       # Request fanout histogram
system.membus.reqLayer2.occupancy         38809123000                       # Layer occupancy (ticks)
system.membus.reqLayer2.utilization               6.0                       # Layer utilization (%)
system.membus.respLayer1.occupancy        34098178750                       # Layer occupancy (ticks)
system.membus.respLayer1.utilization              5.3                       # Layer utilization (%)
system.tol2bus.snoop_filter.tot_requests     12962654                       # Total number of requests made to the snoop filter.
system.tol2bus.snoop_filter.hit_single_requests      6479918                       # Number of requests hitting in the snoop filter with a single holder of the requested data.
system.tol2bus.snoop_filter.hit_multi_requests            1                       # Number of requests hitting in the snoop filter with multiple (>1) holders of the requested data.
system.tol2bus.snoop_filter.tot_snoops            852                       # Total number of snoops made to the snoop filter.
system.tol2bus.snoop_filter.hit_single_snoops          851                       # Number of snoops hitting in the snoop filter with a single holder of the requested data.
system.tol2bus.snoop_filter.hit_multi_snoops            1                       # Number of snoops hitting in the snoop filter with multiple (>1) holders of the requested data.
system.tol2bus.trans_dist::ReadResp              1186                       # Transaction distribution
system.tol2bus.trans_dist::WritebackDirty     12944818                       # Transaction distribution
system.tol2bus.trans_dist::WritebackClean           65                       # Transaction distribution
system.tol2bus.trans_dist::CleanEvict            1357                       # Transaction distribution
system.tol2bus.trans_dist::ReadExReq          6481550                       # Transaction distribution
system.tol2bus.trans_dist::ReadExResp         6481550                       # Transaction distribution
system.tol2bus.trans_dist::ReadCleanReq           835                       # Transaction distribution
system.tol2bus.trans_dist::ReadSharedReq          351                       # Transaction distribution
system.tol2bus.pkt_count_system.cpu.icache.mem_side::system.l2.cpu_side         1735                       # Packet count per connected master and slave (bytes)
system.tol2bus.pkt_count_system.cpu.dcache.mem_side::system.l2.cpu_side     19443654                       # Packet count per connected master and slave (bytes)
system.tol2bus.pkt_count::total              19445389                       # Packet count per connected master and slave (bytes)
system.tol2bus.pkt_size_system.cpu.icache.mem_side::system.l2.cpu_side        57600                       # Cumulative packet size per connected master and slave (bytes)
system.tol2bus.pkt_size_system.cpu.dcache.mem_side::system.l2.cpu_side    829535360                       # Cumulative packet size per connected master and slave (bytes)
system.tol2bus.pkt_size::total              829592960                       # Cumulative packet size per connected master and slave (bytes)
system.tol2bus.snoops                         6466323                       # Total snoops (count)
system.tol2bus.snoop_fanout::samples         12949059                       # Request fanout histogram
system.tol2bus.snoop_fanout::mean            0.000066                       # Request fanout histogram
system.tol2bus.snoop_fanout::stdev           0.008130                       # Request fanout histogram
system.tol2bus.snoop_fanout::underflows             0      0.00%      0.00% # Request fanout histogram
system.tol2bus.snoop_fanout::0               12948206     99.99%     99.99% # Request fanout histogram
system.tol2bus.snoop_fanout::1                    852      0.01%    100.00% # Request fanout histogram
system.tol2bus.snoop_fanout::2                      1      0.00%    100.00% # Request fanout histogram
system.tol2bus.snoop_fanout::3                      0      0.00%    100.00% # Request fanout histogram
system.tol2bus.snoop_fanout::4                      0      0.00%    100.00% # Request fanout histogram
system.tol2bus.snoop_fanout::overflows              0      0.00%    100.00% # Request fanout histogram
system.tol2bus.snoop_fanout::min_value              0                       # Request fanout histogram
system.tol2bus.snoop_fanout::max_value              2                       # Request fanout histogram
system.tol2bus.snoop_fanout::total           12949059                       # Request fanout histogram
system.tol2bus.reqLayer0.occupancy        12960981000                       # Layer occupancy (ticks)
system.tol2bus.reqLayer0.utilization              2.0                       # Layer utilization (%)
system.tol2bus.respLayer0.occupancy           1252500                       # Layer occupancy (ticks)
system.tol2bus.respLayer0.utilization             0.0                       # Layer utilization (%)
system.tol2bus.respLayer1.occupancy        9722851500                       # Layer occupancy (ticks)
system.tol2bus.respLayer1.utilization             1.5                       # Layer utilization (%)

---------- End Simulation Statistics   ----------
