
---------- Begin Simulation Statistics ----------
sim_seconds                                  0.638628                       # Number of seconds simulated
sim_ticks                                638627975500                       # Number of ticks simulated
final_tick                               638627975500                       # Number of ticks from beginning of simulation (restored from checkpoints and never reset)
sim_freq                                 1000000000000                       # Frequency of simulated ticks
host_inst_rate                                 106336                       # Simulator instruction rate (inst/s)
host_op_rate                                   204125                       # Simulator op (including micro ops) rate (op/s)
host_tick_rate                             1358179681                       # Simulator tick rate (ticks/s)
host_mem_usage                                1011692                       # Number of bytes of host memory used
host_seconds                                   470.21                       # Real time elapsed on the host
sim_insts                                    50000000                       # Number of instructions simulated
sim_ops                                      95981250                       # Number of ops (including micro ops) simulated
system.voltage_domain.voltage                       1                       # Voltage in Volts
system.clk_domain.clock                          1000                       # Clock period in ticks
system.mem_ctrls.bytes_read::cpu.inst           51264                       # Number of bytes read from this memory
system.mem_ctrls.bytes_read::cpu.data       414834560                       # Number of bytes read from this memory
system.mem_ctrls.bytes_read::total          414885824                       # Number of bytes read from this memory
system.mem_ctrls.bytes_inst_read::cpu.inst        51264                       # Number of instructions bytes read from this memory
system.mem_ctrls.bytes_inst_read::total         51264                       # Number of instructions bytes read from this memory
system.mem_ctrls.bytes_written::writebacks    347709312                       # Number of bytes written to this memory
system.mem_ctrls.bytes_written::total       347709312                       # Number of bytes written to this memory
system.mem_ctrls.num_reads::cpu.inst              801                       # Number of read requests responded to by this memory
system.mem_ctrls.num_reads::cpu.data          6481790                       # Number of read requests responded to by this memory
system.mem_ctrls.num_reads::total             6482591                       # Number of read requests responded to by this memory
system.mem_ctrls.num_writes::writebacks       5432958                       # Number of write requests responded to by this memory
system.mem_ctrls.num_writes::total            5432958                       # Number of write requests responded to by this memory
system.mem_ctrls.bw_read::cpu.inst              80272                       # Total read bandwidth from this memory (bytes/s)
system.mem_ctrls.bw_read::cpu.data          649571544                       # Total read bandwidth from this memory (bytes/s)
system.mem_ctrls.bw_read::total             649651816                       # Total read bandwidth from this memory (bytes/s)
system.mem_ctrls.bw_inst_read::cpu.inst         80272                       # Instruction read bandwidth from this memory (bytes/s)
system.mem_ctrls.bw_inst_read::total            80272                       # Instruction read bandwidth from this memory (bytes/s)
system.mem_ctrls.bw_write::writebacks       544463013                       # Write bandwidth from this memory (bytes/s)
system.mem_ctrls.bw_write::total            544463013                       # Write bandwidth from this memory (bytes/s)
system.mem_ctrls.bw_total::writebacks       544463013                       # Total bandwidth to/from this memory (bytes/s)
system.mem_ctrls.bw_total::cpu.inst             80272                       # Total bandwidth to/from this memory (bytes/s)
system.mem_ctrls.bw_total::cpu.data         649571544                       # Total bandwidth to/from this memory (bytes/s)
system.mem_ctrls.bw_total::total           1194114829                       # Total bandwidth to/from this memory (bytes/s)
system.mem_ctrls.readReqs                     6482591                       # Number of read requests accepted
system.mem_ctrls.writeReqs                    5432958                       # Number of write requests accepted
system.mem_ctrls.readBursts                   6482591                       # Number of DRAM read bursts, including those serviced by the write queue
system.mem_ctrls.writeBursts                  5432958                       # Number of DRAM write bursts, including those merged in the write queue
system.mem_ctrls.bytesReadDRAM              414885632                       # Total number of bytes read from DRAM
system.mem_ctrls.bytesReadWrQ                     192                       # Total number of bytes read from write queue
system.mem_ctrls.bytesWritten               347707904                       # Total number of bytes written to DRAM
system.mem_ctrls.bytesReadSys               414885824                       # Total read bytes from the system interface side
system.mem_ctrls.bytesWrittenSys            347709312                       # Total written bytes from the system interface side
system.mem_ctrls.servicedByWrQ                      3                       # Number of DRAM read bursts serviced by the write queue
system.mem_ctrls.mergedWrBursts                     0                       # Number of DRAM write bursts merged with an existing one
system.mem_ctrls.neitherReadNorWriteReqs          287                       # Number of requests that are neither read nor write
system.mem_ctrls.perBankRdBursts::0            405123                       # Per bank write bursts
system.mem_ctrls.perBankRdBursts::1            405056                       # Per bank write bursts
system.mem_ctrls.perBankRdBursts::2            405044                       # Per bank write bursts
system.mem_ctrls.perBankRdBursts::3            405016                       # Per bank write bursts
system.mem_ctrls.perBankRdBursts::4            405157                       # Per bank write bursts
system.mem_ctrls.perBankRdBursts::5            405098                       # Per bank write bursts
system.mem_ctrls.perBankRdBursts::6            404874                       # Per bank write bursts
system.mem_ctrls.perBankRdBursts::7            405002                       # Per bank write bursts
system.mem_ctrls.perBankRdBursts::8            405005                       # Per bank write bursts
system.mem_ctrls.perBankRdBursts::9            405137                       # Per bank write bursts
system.mem_ctrls.perBankRdBursts::10           405252                       # Per bank write bursts
system.mem_ctrls.perBankRdBursts::11           405379                       # Per bank write bursts
system.mem_ctrls.perBankRdBursts::12           405354                       # Per bank write bursts
system.mem_ctrls.perBankRdBursts::13           405372                       # Per bank write bursts
system.mem_ctrls.perBankRdBursts::14           405357                       # Per bank write bursts
system.mem_ctrls.perBankRdBursts::15           405362                       # Per bank write bursts
system.mem_ctrls.perBankWrBursts::0            339456                       # Per bank write bursts
system.mem_ctrls.perBankWrBursts::1            339467                       # Per bank write bursts
system.mem_ctrls.perBankWrBursts::2            339482                       # Per bank write bursts
system.mem_ctrls.perBankWrBursts::3            339385                       # Per bank write bursts
system.mem_ctrls.perBankWrBursts::4            339500                       # Per bank write bursts
system.mem_ctrls.perBankWrBursts::5            339452                       # Per bank write bursts
system.mem_ctrls.perBankWrBursts::6            339297                       # Per bank write bursts
system.mem_ctrls.perBankWrBursts::7            339375                       # Per bank write bursts
system.mem_ctrls.perBankWrBursts::8            339442                       # Per bank write bursts
system.mem_ctrls.perBankWrBursts::9            339535                       # Per bank write bursts
system.mem_ctrls.perBankWrBursts::10           339655                       # Per bank write bursts
system.mem_ctrls.perBankWrBursts::11           339812                       # Per bank write bursts
system.mem_ctrls.perBankWrBursts::12           339785                       # Per bank write bursts
system.mem_ctrls.perBankWrBursts::13           339774                       # Per bank write bursts
system.mem_ctrls.perBankWrBursts::14           339779                       # Per bank write bursts
system.mem_ctrls.perBankWrBursts::15           339740                       # Per bank write bursts
system.mem_ctrls.numRdRetry                         0                       # Number of times read queue was full causing retry
system.mem_ctrls.numWrRetry                         0                       # Number of times write queue was full causing retry
system.mem_ctrls.totGap                  638627960500                       # Total gap between requests
system.mem_ctrls.readPktSize::0                     0                       # Read request sizes (log2)
system.mem_ctrls.readPktSize::1                     0                       # Read request sizes (log2)
system.mem_ctrls.readPktSize::2                     0                       # Read request sizes (log2)
system.mem_ctrls.readPktSize::3                     0                       # Read request sizes (log2)
system.mem_ctrls.readPktSize::4                     0                       # Read request sizes (log2)
system.mem_ctrls.readPktSize::5                     0                       # Read request sizes (log2)
system.mem_ctrls.readPktSize::6               6482591                       # Read request sizes (log2)
system.mem_ctrls.writePktSize::0                    0                       # Write request sizes (log2)
system.mem_ctrls.writePktSize::1                    0                       # Write request sizes (log2)
system.mem_ctrls.writePktSize::2                    0                       # Write request sizes (log2)
system.mem_ctrls.writePktSize::3                    0                       # Write request sizes (log2)
system.mem_ctrls.writePktSize::4                    0                       # Write request sizes (log2)
system.mem_ctrls.writePktSize::5                    0                       # Write request sizes (log2)
system.mem_ctrls.writePktSize::6              5432958                       # Write request sizes (log2)
system.mem_ctrls.rdQLenPdf::0                 6482587                       # What read queue length does an incoming req see
system.mem_ctrls.rdQLenPdf::1                       1                       # What read queue length does an incoming req see
system.mem_ctrls.rdQLenPdf::2                       0                       # What read queue length does an incoming req see
system.mem_ctrls.rdQLenPdf::3                       0                       # What read queue length does an incoming req see
system.mem_ctrls.rdQLenPdf::4                       0                       # What read queue length does an incoming req see
system.mem_ctrls.rdQLenPdf::5                       0                       # What read queue length does an incoming req see
system.mem_ctrls.rdQLenPdf::6                       0                       # What read queue length does an incoming req see
system.mem_ctrls.rdQLenPdf::7                       0                       # What read queue length does an incoming req see
system.mem_ctrls.rdQLenPdf::8                       0                       # What read queue length does an incoming req see
system.mem_ctrls.rdQLenPdf::9                       0                       # What read queue length does an incoming req see
system.mem_ctrls.rdQLenPdf::10                      0                       # What read queue length does an incoming req see
system.mem_ctrls.rdQLenPdf::11                      0                       # What read queue length does an incoming req see
system.mem_ctrls.rdQLenPdf::12                      0                       # What read queue length does an incoming req see
system.mem_ctrls.rdQLenPdf::13                      0                       # What read queue length does an incoming req see
system.mem_ctrls.rdQLenPdf::14                      0                       # What read queue length does an incoming req see
system.mem_ctrls.rdQLenPdf::15                      0                       # What read queue length does an incoming req see
system.mem_ctrls.rdQLenPdf::16                      0                       # What read queue length does an incoming req see
system.mem_ctrls.rdQLenPdf::17                      0                       # What read queue length does an incoming req see
system.mem_ctrls.rdQLenPdf::18                      0                       # What read queue length does an incoming req see
system.mem_ctrls.rdQLenPdf::19                      0                       # What read queue length does an incoming req see
system.mem_ctrls.rdQLenPdf::20                      0                       # What read queue length does an incoming req see
system.mem_ctrls.rdQLenPdf::21                      0                       # What read queue length does an incoming req see
system.mem_ctrls.rdQLenPdf::22                      0                       # What read queue length does an incoming req see
system.mem_ctrls.rdQLenPdf::23                      0                       # What read queue length does an incoming req see
system.mem_ctrls.rdQLenPdf::24                      0                       # What read queue length does an incoming req see
system.mem_ctrls.rdQLenPdf::25                      0                       # What read queue length does an incoming req see
system.mem_ctrls.rdQLenPdf::26                      0                       # What read queue length does an incoming req see
system.mem_ctrls.rdQLenPdf::27                      0                       # What read queue length does an incoming req see
system.mem_ctrls.rdQLenPdf::28                      0                       # What read queue length does an incoming req see
system.mem_ctrls.rdQLenPdf::29                      0                       # What read queue length does an incoming req see
system.mem_ctrls.rdQLenPdf::30                      0                       # What read queue length does an incoming req see
system.mem_ctrls.rdQLenPdf::31                      0                       # What read queue length does an incoming req see
system.mem_ctrls.wrQLenPdf::0                       1                       # What write queue length does an incoming req see
system.mem_ctrls.wrQLenPdf::1                       1                       # What write queue length does an incoming req see
system.mem_ctrls.wrQLenPdf::2                       1                       # What write queue length does an incoming req see
system.mem_ctrls.wrQLenPdf::3                       1                       # What write queue length does an incoming req see
system.mem_ctrls.wrQLenPdf::4                       1                       # What write queue length does an incoming req see
system.mem_ctrls.wrQLenPdf::5                       1                       # What write queue length does an incoming req see
system.mem_ctrls.wrQLenPdf::6                       1                       # What write queue length does an incoming req see
system.mem_ctrls.wrQLenPdf::7                       1                       # What write queue length does an incoming req see
system.mem_ctrls.wrQLenPdf::8                       1                       # What write queue length does an incoming req see
system.mem_ctrls.wrQLenPdf::9                       1                       # What write queue length does an incoming req see
system.mem_ctrls.wrQLenPdf::10                      1                       # What write queue length does an incoming req see
system.mem_ctrls.wrQLenPdf::11                      1                       # What write queue length does an incoming req see
system.mem_ctrls.wrQLenPdf::12                      1                       # What write queue length does an incoming req see
system.mem_ctrls.wrQLenPdf::13                      1                       # What write queue length does an incoming req see
system.mem_ctrls.wrQLenPdf::14                      1                       # What write queue length does an incoming req see
system.mem_ctrls.wrQLenPdf::15                    853                       # What write queue length does an incoming req see
system.mem_ctrls.wrQLenPdf::16                    855                       # What write queue length does an incoming req see
system.mem_ctrls.wrQLenPdf::17                 338049                       # What write queue length does an incoming req see
system.mem_ctrls.wrQLenPdf::18                 339403                       # What write queue length does an incoming req see
system.mem_ctrls.wrQLenPdf::19                 339404                       # What write queue length does an incoming req see
system.mem_ctrls.wrQLenPdf::20                 339406                       # What write queue length does an incoming req see
system.mem_ctrls.wrQLenPdf::21                 339400                       # What write queue length does an incoming req see
system.mem_ctrls.wrQLenPdf::22                 339401                       # What write queue length does an incoming req see
system.mem_ctrls.wrQLenPdf::23                 339400                       # What write queue length does an incoming req see
system.mem_ctrls.wrQLenPdf::24                 339405                       # What write queue length does an incoming req see
system.mem_ctrls.wrQLenPdf::25                 341572                       # What write queue length does an incoming req see
system.mem_ctrls.wrQLenPdf::26                 339400                       # What write queue length does an incoming req see
system.mem_ctrls.wrQLenPdf::27                 339399                       # What write queue length does an incoming req see
system.mem_ctrls.wrQLenPdf::28                 339399                       # What write queue length does an incoming req see
system.mem_ctrls.wrQLenPdf::29                 339400                       # What write queue length does an incoming req see
system.mem_ctrls.wrQLenPdf::30                 339399                       # What write queue length does an incoming req see
system.mem_ctrls.wrQLenPdf::31                 339399                       # What write queue length does an incoming req see
system.mem_ctrls.wrQLenPdf::32                 339399                       # What write queue length does an incoming req see
system.mem_ctrls.wrQLenPdf::33                      0                       # What write queue length does an incoming req see
system.mem_ctrls.wrQLenPdf::34                      0                       # What write queue length does an incoming req see
system.mem_ctrls.wrQLenPdf::35                      0                       # What write queue length does an incoming req see
system.mem_ctrls.wrQLenPdf::36                      0                       # What write queue length does an incoming req see
system.mem_ctrls.wrQLenPdf::37                      0                       # What write queue length does an incoming req see
system.mem_ctrls.wrQLenPdf::38                      0                       # What write queue length does an incoming req see
system.mem_ctrls.wrQLenPdf::39                      0                       # What write queue length does an incoming req see
system.mem_ctrls.wrQLenPdf::40                      0                       # What write queue length does an incoming req see
system.mem_ctrls.wrQLenPdf::41                      0                       # What write queue length does an incoming req see
system.mem_ctrls.wrQLenPdf::42                      0                       # What write queue length does an incoming req see
system.mem_ctrls.wrQLenPdf::43                      0                       # What write queue length does an incoming req see
system.mem_ctrls.wrQLenPdf::44                      0                       # What write queue length does an incoming req see
system.mem_ctrls.wrQLenPdf::45                      0                       # What write queue length does an incoming req see
system.mem_ctrls.wrQLenPdf::46                      0                       # What write queue length does an incoming req see
system.mem_ctrls.wrQLenPdf::47                      0                       # What write queue length does an incoming req see
system.mem_ctrls.wrQLenPdf::48                      0                       # What write queue length does an incoming req see
system.mem_ctrls.wrQLenPdf::49                      0                       # What write queue length does an incoming req see
system.mem_ctrls.wrQLenPdf::50                      0                       # What write queue length does an incoming req see
system.mem_ctrls.wrQLenPdf::51                      0                       # What write queue length does an incoming req see
system.mem_ctrls.wrQLenPdf::52                      0                       # What write queue length does an incoming req see
system.mem_ctrls.wrQLenPdf::53                      0                       # What write queue length does an incoming req see
system.mem_ctrls.wrQLenPdf::54                      0                       # What write queue length does an incoming req see
system.mem_ctrls.wrQLenPdf::55                      0                       # What write queue length does an incoming req see
system.mem_ctrls.wrQLenPdf::56                      0                       # What write queue length does an incoming req see
system.mem_ctrls.wrQLenPdf::57                      0                       # What write queue length does an incoming req see
system.mem_ctrls.wrQLenPdf::58                      0                       # What write queue length does an incoming req see
system.mem_ctrls.wrQLenPdf::59                      0                       # What write queue length does an incoming req see
system.mem_ctrls.wrQLenPdf::60                      0                       # What write queue length does an incoming req see
system.mem_ctrls.wrQLenPdf::61                      0                       # What write queue length does an incoming req see
system.mem_ctrls.wrQLenPdf::62                      0                       # What write queue length does an incoming req see
system.mem_ctrls.wrQLenPdf::63                      0                       # What write queue length does an incoming req see
system.mem_ctrls.bytesPerActivate::samples       897159                       # Bytes accessed per row activation
system.mem_ctrls.bytesPerActivate::mean    850.008277                       # Bytes accessed per row activation
system.mem_ctrls.bytesPerActivate::gmean   742.955337                       # Bytes accessed per row activation
system.mem_ctrls.bytesPerActivate::stdev   296.911499                       # Bytes accessed per row activation
system.mem_ctrls.bytesPerActivate::0-127        28712      3.20%      3.20% # Bytes accessed per row activation
system.mem_ctrls.bytesPerActivate::128-255        34810      3.88%      7.08% # Bytes accessed per row activation
system.mem_ctrls.bytesPerActivate::256-383        45870      5.11%     12.19% # Bytes accessed per row activation
system.mem_ctrls.bytesPerActivate::384-511        38320      4.27%     16.46% # Bytes accessed per row activation
system.mem_ctrls.bytesPerActivate::512-639        31623      3.52%     19.99% # Bytes accessed per row activation
system.mem_ctrls.bytesPerActivate::640-767        45830      5.11%     25.10% # Bytes accessed per row activation
system.mem_ctrls.bytesPerActivate::768-895        30387      3.39%     28.48% # Bytes accessed per row activation
system.mem_ctrls.bytesPerActivate::896-1023        38509      4.29%     32.78% # Bytes accessed per row activation
system.mem_ctrls.bytesPerActivate::1024-1151       603098     67.22%    100.00% # Bytes accessed per row activation
system.mem_ctrls.bytesPerActivate::total       897159                       # Bytes accessed per row activation
system.mem_ctrls.rdPerTurnAround::samples       339399                       # Reads before turning the bus around for writes
system.mem_ctrls.rdPerTurnAround::mean      19.100183                       # Reads before turning the bus around for writes
system.mem_ctrls.rdPerTurnAround::gmean     16.012400                       # Reads before turning the bus around for writes
system.mem_ctrls.rdPerTurnAround::stdev   1437.782300                       # Reads before turning the bus around for writes
system.mem_ctrls.rdPerTurnAround::0-32767       339395    100.00%    100.00% # Reads before turning the bus around for writes
system.mem_ctrls.rdPerTurnAround::32768-65535            1      0.00%    100.00% # Reads before turning the bus around for writes
system.mem_ctrls.rdPerTurnAround::65536-98303            1      0.00%    100.00% # Reads before turning the bus around for writes
system.mem_ctrls.rdPerTurnAround::98304-131071            1      0.00%    100.00% # Reads before turning the bus around for writes
system.mem_ctrls.rdPerTurnAround::819200-851967            1      0.00%    100.00% # Reads before turning the bus around for writes
system.mem_ctrls.rdPerTurnAround::total        339399                       # Reads before turning the bus around for writes
system.mem_ctrls.wrPerTurnAround::samples       339399                       # Writes before turning the bus around for reads
system.mem_ctrls.wrPerTurnAround::mean      16.007519                       # Writes before turning the bus around for reads
system.mem_ctrls.wrPerTurnAround::gmean     16.006895                       # Writes before turning the bus around for reads
system.mem_ctrls.wrPerTurnAround::stdev      0.149768                       # Writes before turning the bus around for reads
system.mem_ctrls.wrPerTurnAround::16           338544     99.75%     99.75% # Writes before turning the bus around for reads
system.mem_ctrls.wrPerTurnAround::17                1      0.00%     99.75% # Writes before turning the bus around for reads
system.mem_ctrls.wrPerTurnAround::18               11      0.00%     99.75% # Writes before turning the bus around for reads
system.mem_ctrls.wrPerTurnAround::19              843      0.25%    100.00% # Writes before turning the bus around for reads
system.mem_ctrls.wrPerTurnAround::total        339399                       # Writes before turning the bus around for reads
system.mem_ctrls.totQLat                  60626796250                       # Total ticks spent queuing
system.mem_ctrls.totMemAccLat            182175321250                       # Total ticks spent from burst creation until serviced by the DRAM
system.mem_ctrls.totBusLat                32412940000                       # Total ticks spent in databus transfers
system.mem_ctrls.avgQLat                      9352.25                       # Average queueing delay per DRAM burst
system.mem_ctrls.avgBusLat                    5000.00                       # Average bus latency per DRAM burst
system.mem_ctrls.avgMemAccLat                28102.25                       # Average memory access latency per DRAM burst
system.mem_ctrls.avgRdBW                       649.65                       # Average DRAM read bandwidth in MiByte/s
system.mem_ctrls.avgWrBW                       544.46                       # Average achieved write bandwidth in MiByte/s
system.mem_ctrls.avgRdBWSys                    649.65                       # Average system read bandwidth in MiByte/s
system.mem_ctrls.avgWrBWSys                    544.46                       # Average system write bandwidth in MiByte/s
system.mem_ctrls.peakBW                      12800.00                       # Theoretical peak bandwidth in MiByte/s
system.mem_ctrls.busUtil                         9.33                       # Data bus utilization in percentage
system.mem_ctrls.busUtilRead                     5.08                       # Data bus utilization in percentage for reads
system.mem_ctrls.busUtilWrite                    4.25                       # Data bus utilization in percentage for writes
system.mem_ctrls.avgRdQLen                       1.00                       # Average read queue length when enqueuing
system.mem_ctrls.avgWrQLen                      24.65                       # Average write queue length when enqueuing
system.mem_ctrls.readRowHits                  5963052                       # Number of row buffer hits during reads
system.mem_ctrls.writeRowHits                 5055312                       # Number of row buffer hits during writes
system.mem_ctrls.readRowHitRate                 91.99                       # Row buffer hit rate for reads
system.mem_ctrls.writeRowHitRate                93.05                       # Row buffer hit rate for writes
system.mem_ctrls.avgGap                      53596.18                       # Average gap between requests
system.mem_ctrls.pageHitRate                    92.47                       # Row buffer hit rate, read and write combined
system.mem_ctrls_0.actEnergy               3391612560                       # Energy for activate commands per rank (pJ)
system.mem_ctrls_0.preEnergy               1850582250                       # Energy for precharge commands per rank (pJ)
system.mem_ctrls_0.readEnergy             25274769000                       # Energy for read commands per rank (pJ)
system.mem_ctrls_0.writeEnergy            17595882720                       # Energy for write commands per rank (pJ)
system.mem_ctrls_0.refreshEnergy          41711582640                       # Energy for refresh commands per rank (pJ)
system.mem_ctrls_0.actBackEnergy         225814099590                       # Energy for active background per rank (pJ)
system.mem_ctrls_0.preBackEnergy         185089867500                       # Energy for precharge background per rank (pJ)
system.mem_ctrls_0.totalEnergy           500728396260                       # Total energy per rank (pJ)
system.mem_ctrls_0.averagePower            784.077948                       # Core power per rank (mW)
system.mem_ctrls_0.memoryStateTime::IDLE 303398114750                       # Time in different power states
system.mem_ctrls_0.memoryStateTime::REF   21324940000                       # Time in different power states
system.mem_ctrls_0.memoryStateTime::PRE_PDN            0                       # Time in different power states
system.mem_ctrls_0.memoryStateTime::ACT  313903533250                       # Time in different power states
system.mem_ctrls_0.memoryStateTime::ACT_PDN            0                       # Time in different power states
system.mem_ctrls_1.actEnergy               3390833880                       # Energy for activate commands per rank (pJ)
system.mem_ctrls_1.preEnergy               1850157375                       # Energy for precharge commands per rank (pJ)
system.mem_ctrls_1.readEnergy             25288824600                       # Energy for read commands per rank (pJ)
system.mem_ctrls_1.writeEnergy            17609024160                       # Energy for write commands per rank (pJ)
system.mem_ctrls_1.refreshEnergy          41711582640                       # Energy for refresh commands per rank (pJ)
system.mem_ctrls_1.actBackEnergy         226096003350                       # Energy for active background per rank (pJ)
system.mem_ctrls_1.preBackEnergy         184842591750                       # Energy for precharge background per rank (pJ)
system.mem_ctrls_1.totalEnergy           500789017755                       # Total energy per rank (pJ)
system.mem_ctrls_1.averagePower            784.172857                       # Core power per rank (mW)
system.mem_ctrls_1.memoryStateTime::IDLE 302988979250                       # Time in different power states
system.mem_ctrls_1.memoryStateTime::REF   21324940000                       # Time in different power states
system.mem_ctrls_1.memoryStateTime::PRE_PDN            0                       # Time in different power states
system.mem_ctrls_1.memoryStateTime::ACT  314313682750                       # Time in different power states
system.mem_ctrls_1.memoryStateTime::ACT_PDN            0                       # Time in different power states
system.cpu_voltage_domain.voltage                   1                       # Voltage in Volts
system.cpu_clk_domain.clock                       500                       # Clock period in ticks
system.cpu.apic_clk_domain.clock                 8000                       # Clock period in ticks
system.cpu.workload.num_syscalls                  108                       # Number of system calls
system.cpu.numCycles                       1277255951                       # number of cpu cycles simulated
system.cpu.numWorkItemsStarted                      0                       # number of work items this cpu started
system.cpu.numWorkItemsCompleted                    0                       # number of work items this cpu completed
system.cpu.committedInsts                    50000000                       # Number of instructions committed
system.cpu.committedOps                      95981250                       # Number of ops (including micro ops) committed
system.cpu.num_int_alu_accesses              95975785                       # Number of integer alu accesses
system.cpu.num_fp_alu_accesses               51833393                       # Number of float alu accesses
system.cpu.num_func_calls                        7602                       # number of times a function call or return occured
system.cpu.num_conditional_control_insts      6532565                       # number of instructions that are conditional controls
system.cpu.num_int_insts                     95975785                       # number of integer instructions
system.cpu.num_fp_insts                      51833393                       # number of float instructions
system.cpu.num_int_register_reads           219093278                       # number of times the integer registers were read
system.cpu.num_int_register_writes           37404612                       # number of times the integer registers were written
system.cpu.num_fp_register_reads             51836929                       # number of times the floating registers were read
system.cpu.num_fp_register_writes                4221                       # number of times the floating registers were written
system.cpu.num_cc_register_reads             34496135                       # number of times the CC registers were read
system.cpu.num_cc_register_writes            29304313                       # number of times the CC registers were written
system.cpu.num_mem_refs                      53378424                       # number of memory refs
system.cpu.num_load_insts                     1350127                       # Number of load instructions
system.cpu.num_store_insts                   52028297                       # Number of store instructions
system.cpu.num_idle_cycles                          0                       # Number of idle cycles
system.cpu.num_busy_cycles                 1277255951                       # Number of busy cycles
system.cpu.not_idle_fraction                        1                       # Percentage of non-idle cycles
system.cpu.idle_fraction                            0                       # Percentage of idle cycles
system.cpu.Branches                           6543945                       # Number of branches fetched
system.cpu.op_class::No_OpClass                  1613      0.00%      0.00% # Class of executed instruction
system.cpu.op_class::IntAlu                  42596797     44.38%     44.38% # Class of executed instruction
system.cpu.op_class::IntMult                      725      0.00%     44.38% # Class of executed instruction
system.cpu.op_class::IntDiv                        21      0.00%     44.38% # Class of executed instruction
system.cpu.op_class::FloatAdd                    3670      0.00%     44.39% # Class of executed instruction
system.cpu.op_class::FloatCmp                       0      0.00%     44.39% # Class of executed instruction
system.cpu.op_class::FloatCvt                       0      0.00%     44.39% # Class of executed instruction
system.cpu.op_class::FloatMult                      0      0.00%     44.39% # Class of executed instruction
system.cpu.op_class::FloatDiv                       0      0.00%     44.39% # Class of executed instruction
system.cpu.op_class::FloatSqrt                      0      0.00%     44.39% # Class of executed instruction
system.cpu.op_class::SimdAdd                        0      0.00%     44.39% # Class of executed instruction
system.cpu.op_class::SimdAddAcc                     0      0.00%     44.39% # Class of executed instruction
system.cpu.op_class::SimdAlu                        0      0.00%     44.39% # Class of executed instruction
system.cpu.op_class::SimdCmp                        0      0.00%     44.39% # Class of executed instruction
system.cpu.op_class::SimdCvt                        0      0.00%     44.39% # Class of executed instruction
system.cpu.op_class::SimdMisc                       0      0.00%     44.39% # Class of executed instruction
system.cpu.op_class::SimdMult                       0      0.00%     44.39% # Class of executed instruction
system.cpu.op_class::SimdMultAcc                    0      0.00%     44.39% # Class of executed instruction
system.cpu.op_class::SimdShift                      0      0.00%     44.39% # Class of executed instruction
system.cpu.op_class::SimdShiftAcc                   0      0.00%     44.39% # Class of executed instruction
system.cpu.op_class::SimdSqrt                       0      0.00%     44.39% # Class of executed instruction
system.cpu.op_class::SimdFloatAdd                   0      0.00%     44.39% # Class of executed instruction
system.cpu.op_class::SimdFloatAlu                   0      0.00%     44.39% # Class of executed instruction
system.cpu.op_class::SimdFloatCmp                   0      0.00%     44.39% # Class of executed instruction
system.cpu.op_class::SimdFloatCvt                   0      0.00%     44.39% # Class of executed instruction
system.cpu.op_class::SimdFloatDiv                   0      0.00%     44.39% # Class of executed instruction
system.cpu.op_class::SimdFloatMisc                  0      0.00%     44.39% # Class of executed instruction
system.cpu.op_class::SimdFloatMult                  0      0.00%     44.39% # Class of executed instruction
system.cpu.op_class::SimdFloatMultAcc               0      0.00%     44.39% # Class of executed instruction
system.cpu.op_class::SimdFloatSqrt                  0      0.00%     44.39% # Class of executed instruction
system.cpu.op_class::MemRead                  1350127      1.41%     45.79% # Class of executed instruction
system.cpu.op_class::MemWrite                52028297     54.21%    100.00% # Class of executed instruction
system.cpu.op_class::IprAccess                      0      0.00%    100.00% # Class of executed instruction
system.cpu.op_class::InstPrefetch                   0      0.00%    100.00% # Class of executed instruction
system.cpu.op_class::total                   95981250                       # Class of executed instruction
system.cpu.dcache.tags.replacements           6479845                       # number of replacements
system.cpu.dcache.tags.tagsinuse          2041.712157                       # Cycle average of tags in use
system.cpu.dcache.tags.total_refs            46896545                       # Total number of references to valid blocks.
system.cpu.dcache.tags.sampled_refs           6481893                       # Sample count of references to valid blocks.
system.cpu.dcache.tags.avg_refs              7.235008                       # Average number of references to valid blocks.
system.cpu.dcache.tags.warmup_cycle        7641223500                       # Cycle when the warmup percentage was hit.
system.cpu.dcache.tags.occ_blocks::cpu.data  2041.712157                       # Average occupied blocks per requestor
system.cpu.dcache.tags.occ_percent::cpu.data     0.996930                       # Average percentage of cache occupancy
system.cpu.dcache.tags.occ_percent::total     0.996930                       # Average percentage of cache occupancy
system.cpu.dcache.tags.occ_task_id_blocks::1024         2048                       # Occupied blocks per task id
system.cpu.dcache.tags.age_task_id_blocks_1024::0          102                       # Occupied blocks per task id
system.cpu.dcache.tags.age_task_id_blocks_1024::1          915                       # Occupied blocks per task id
system.cpu.dcache.tags.age_task_id_blocks_1024::2         1031                       # Occupied blocks per task id
system.cpu.dcache.tags.occ_task_id_percent::1024            1                       # Percentage of cache occupancy per task id
system.cpu.dcache.tags.tag_accesses         113238769                       # Number of tag accesses
system.cpu.dcache.tags.data_accesses        113238769                       # Number of data accesses
system.cpu.dcache.ReadReq_hits::cpu.data      1349786                       # number of ReadReq hits
system.cpu.dcache.ReadReq_hits::total         1349786                       # number of ReadReq hits
system.cpu.dcache.WriteReq_hits::cpu.data     45546759                       # number of WriteReq hits
system.cpu.dcache.WriteReq_hits::total       45546759                       # number of WriteReq hits
system.cpu.dcache.demand_hits::cpu.data      46896545                       # number of demand (read+write) hits
system.cpu.dcache.demand_hits::total         46896545                       # number of demand (read+write) hits
system.cpu.dcache.overall_hits::cpu.data     46896545                       # number of overall hits
system.cpu.dcache.overall_hits::total        46896545                       # number of overall hits
system.cpu.dcache.ReadReq_misses::cpu.data          345                       # number of ReadReq misses
system.cpu.dcache.ReadReq_misses::total           345                       # number of ReadReq misses
system.cpu.dcache.WriteReq_misses::cpu.data      6481548                       # number of WriteReq misses
system.cpu.dcache.WriteReq_misses::total      6481548                       # number of WriteReq misses
system.cpu.dcache.demand_misses::cpu.data      6481893                       # number of demand (read+write) misses
system.cpu.dcache.demand_misses::total        6481893                       # number of demand (read+write) misses
system.cpu.dcache.overall_misses::cpu.data      6481893                       # number of overall misses
system.cpu.dcache.overall_misses::total       6481893                       # number of overall misses
system.cpu.dcache.ReadReq_miss_latency::cpu.data     29128500                       # number of ReadReq miss cycles
system.cpu.dcache.ReadReq_miss_latency::total     29128500                       # number of ReadReq miss cycles
system.cpu.dcache.WriteReq_miss_latency::cpu.data 520868879000                       # number of WriteReq miss cycles
system.cpu.dcache.WriteReq_miss_latency::total 520868879000                       # number of WriteReq miss cycles
system.cpu.dcache.demand_miss_latency::cpu.data 520898007500                       # number of demand (read+write) miss cycles
system.cpu.dcache.demand_miss_latency::total 520898007500                       # number of demand (read+write) miss cycles
system.cpu.dcache.overall_miss_latency::cpu.data 520898007500                       # number of overall miss cycles
system.cpu.dcache.overall_miss_latency::total 520898007500                       # number of overall miss cycles
system.cpu.dcache.ReadReq_accesses::cpu.data      1350131                       # number of ReadReq accesses(hits+misses)
system.cpu.dcache.ReadReq_accesses::total      1350131                       # number of ReadReq accesses(hits+misses)
system.cpu.dcache.WriteReq_accesses::cpu.data     52028307                       # number of WriteReq accesses(hits+misses)
system.cpu.dcache.WriteReq_accesses::total     52028307                       # number of WriteReq accesses(hits+misses)
system.cpu.dcache.demand_accesses::cpu.data     53378438                       # number of demand (read+write) accesses
system.cpu.dcache.demand_accesses::total     53378438                       # number of demand (read+write) accesses
system.cpu.dcache.overall_accesses::cpu.data     53378438                       # number of overall (read+write) accesses
system.cpu.dcache.overall_accesses::total     53378438                       # number of overall (read+write) accesses
system.cpu.dcache.ReadReq_miss_rate::cpu.data     0.000256                       # miss rate for ReadReq accesses
system.cpu.dcache.ReadReq_miss_rate::total     0.000256                       # miss rate for ReadReq accesses
system.cpu.dcache.WriteReq_miss_rate::cpu.data     0.124577                       # miss rate for WriteReq accesses
system.cpu.dcache.WriteReq_miss_rate::total     0.124577                       # miss rate for WriteReq accesses
system.cpu.dcache.demand_miss_rate::cpu.data     0.121433                       # miss rate for demand accesses
system.cpu.dcache.demand_miss_rate::total     0.121433                       # miss rate for demand accesses
system.cpu.dcache.overall_miss_rate::cpu.data     0.121433                       # miss rate for overall accesses
system.cpu.dcache.overall_miss_rate::total     0.121433                       # miss rate for overall accesses
system.cpu.dcache.ReadReq_avg_miss_latency::cpu.data 84430.434783                       # average ReadReq miss latency
system.cpu.dcache.ReadReq_avg_miss_latency::total 84430.434783                       # average ReadReq miss latency
system.cpu.dcache.WriteReq_avg_miss_latency::cpu.data 80361.802304                       # average WriteReq miss latency
system.cpu.dcache.WriteReq_avg_miss_latency::total 80361.802304                       # average WriteReq miss latency
system.cpu.dcache.demand_avg_miss_latency::cpu.data 80362.018858                       # average overall miss latency
system.cpu.dcache.demand_avg_miss_latency::total 80362.018858                       # average overall miss latency
system.cpu.dcache.overall_avg_miss_latency::cpu.data 80362.018858                       # average overall miss latency
system.cpu.dcache.overall_avg_miss_latency::total 80362.018858                       # average overall miss latency
system.cpu.dcache.blocked_cycles::no_mshrs            0                       # number of cycles access was blocked
system.cpu.dcache.blocked_cycles::no_targets            0                       # number of cycles access was blocked
system.cpu.dcache.blocked::no_mshrs                 0                       # number of cycles access was blocked
system.cpu.dcache.blocked::no_targets               0                       # number of cycles access was blocked
system.cpu.dcache.avg_blocked_cycles::no_mshrs          nan                       # average number of cycles each access was blocked
system.cpu.dcache.avg_blocked_cycles::no_targets          nan                       # average number of cycles each access was blocked
system.cpu.dcache.fast_writes                       0                       # number of fast writes performed
system.cpu.dcache.cache_copies                      0                       # number of cache copies performed
system.cpu.dcache.writebacks::writebacks      6479582                       # number of writebacks
system.cpu.dcache.writebacks::total           6479582                       # number of writebacks
system.cpu.dcache.ReadReq_mshr_misses::cpu.data          345                       # number of ReadReq MSHR misses
system.cpu.dcache.ReadReq_mshr_misses::total          345                       # number of ReadReq MSHR misses
system.cpu.dcache.WriteReq_mshr_misses::cpu.data      6481548                       # number of WriteReq MSHR misses
system.cpu.dcache.WriteReq_mshr_misses::total      6481548                       # number of WriteReq MSHR misses
system.cpu.dcache.demand_mshr_misses::cpu.data      6481893                       # number of demand (read+write) MSHR misses
system.cpu.dcache.demand_mshr_misses::total      6481893                       # number of demand (read+write) MSHR misses
system.cpu.dcache.overall_mshr_misses::cpu.data      6481893                       # number of overall MSHR misses
system.cpu.dcache.overall_mshr_misses::total      6481893                       # number of overall MSHR misses
system.cpu.dcache.ReadReq_mshr_miss_latency::cpu.data     28783500                       # number of ReadReq MSHR miss cycles
system.cpu.dcache.ReadReq_mshr_miss_latency::total     28783500                       # number of ReadReq MSHR miss cycles
system.cpu.dcache.WriteReq_mshr_miss_latency::cpu.data 514387331000                       # number of WriteReq MSHR miss cycles
system.cpu.dcache.WriteReq_mshr_miss_latency::total 514387331000                       # number of WriteReq MSHR miss cycles
system.cpu.dcache.demand_mshr_miss_latency::cpu.data 514416114500                       # number of demand (read+write) MSHR miss cycles
system.cpu.dcache.demand_mshr_miss_latency::total 514416114500                       # number of demand (read+write) MSHR miss cycles
system.cpu.dcache.overall_mshr_miss_latency::cpu.data 514416114500                       # number of overall MSHR miss cycles
system.cpu.dcache.overall_mshr_miss_latency::total 514416114500                       # number of overall MSHR miss cycles
system.cpu.dcache.ReadReq_mshr_miss_rate::cpu.data     0.000256                       # mshr miss rate for ReadReq accesses
system.cpu.dcache.ReadReq_mshr_miss_rate::total     0.000256                       # mshr miss rate for ReadReq accesses
system.cpu.dcache.WriteReq_mshr_miss_rate::cpu.data     0.124577                       # mshr miss rate for WriteReq accesses
system.cpu.dcache.WriteReq_mshr_miss_rate::total     0.124577                       # mshr miss rate for WriteReq accesses
system.cpu.dcache.demand_mshr_miss_rate::cpu.data     0.121433                       # mshr miss rate for demand accesses
system.cpu.dcache.demand_mshr_miss_rate::total     0.121433                       # mshr miss rate for demand accesses
system.cpu.dcache.overall_mshr_miss_rate::cpu.data     0.121433                       # mshr miss rate for overall accesses
system.cpu.dcache.overall_mshr_miss_rate::total     0.121433                       # mshr miss rate for overall accesses
system.cpu.dcache.ReadReq_avg_mshr_miss_latency::cpu.data 83430.434783                       # average ReadReq mshr miss latency
system.cpu.dcache.ReadReq_avg_mshr_miss_latency::total 83430.434783                       # average ReadReq mshr miss latency
system.cpu.dcache.WriteReq_avg_mshr_miss_latency::cpu.data 79361.802304                       # average WriteReq mshr miss latency
system.cpu.dcache.WriteReq_avg_mshr_miss_latency::total 79361.802304                       # average WriteReq mshr miss latency
system.cpu.dcache.demand_avg_mshr_miss_latency::cpu.data 79362.018858                       # average overall mshr miss latency
system.cpu.dcache.demand_avg_mshr_miss_latency::total 79362.018858                       # average overall mshr miss latency
system.cpu.dcache.overall_avg_mshr_miss_latency::cpu.data 79362.018858                       # average overall mshr miss latency
system.cpu.dcache.overall_avg_mshr_miss_latency::total 79362.018858                       # average overall mshr miss latency
system.cpu.dcache.no_allocate_misses                0                       # Number of misses that were no-allocate
system.cpu.dtb_walker_cache.tags.replacements            0                       # number of replacements
system.cpu.dtb_walker_cache.tags.tagsinuse            0                       # Cycle average of tags in use
system.cpu.dtb_walker_cache.tags.total_refs            0                       # Total number of references to valid blocks.
system.cpu.dtb_walker_cache.tags.sampled_refs            0                       # Sample count of references to valid blocks.
system.cpu.dtb_walker_cache.tags.avg_refs          nan                       # Average number of references to valid blocks.
system.cpu.dtb_walker_cache.tags.warmup_cycle            0                       # Cycle when the warmup percentage was hit.
system.cpu.dtb_walker_cache.tags.tag_accesses            0                       # Number of tag accesses
system.cpu.dtb_walker_cache.tags.data_accesses            0                       # Number of data accesses
system.cpu.dtb_walker_cache.blocked_cycles::no_mshrs            0                       # number of cycles access was blocked
system.cpu.dtb_walker_cache.blocked_cycles::no_targets            0                       # number of cycles access was blocked
system.cpu.dtb_walker_cache.blocked::no_mshrs            0                       # number of cycles access was blocked
system.cpu.dtb_walker_cache.blocked::no_targets            0                       # number of cycles access was blocked
system.cpu.dtb_walker_cache.avg_blocked_cycles::no_mshrs          nan                       # average number of cycles each access was blocked
system.cpu.dtb_walker_cache.avg_blocked_cycles::no_targets          nan                       # average number of cycles each access was blocked
system.cpu.dtb_walker_cache.fast_writes             0                       # number of fast writes performed
system.cpu.dtb_walker_cache.cache_copies            0                       # number of cache copies performed
system.cpu.dtb_walker_cache.no_allocate_misses            0                       # Number of misses that were no-allocate
system.cpu.icache.tags.replacements                65                       # number of replacements
system.cpu.icache.tags.tagsinuse           510.275494                       # Cycle average of tags in use
system.cpu.icache.tags.total_refs            70767702                       # Total number of references to valid blocks.
system.cpu.icache.tags.sampled_refs               835                       # Sample count of references to valid blocks.
system.cpu.icache.tags.avg_refs          84751.738922                       # Average number of references to valid blocks.
system.cpu.icache.tags.warmup_cycle                 0                       # Cycle when the warmup percentage was hit.
system.cpu.icache.tags.occ_blocks::cpu.inst   510.275494                       # Average occupied blocks per requestor
system.cpu.icache.tags.occ_percent::cpu.inst     0.249158                       # Average percentage of cache occupancy
system.cpu.icache.tags.occ_percent::total     0.249158                       # Average percentage of cache occupancy
system.cpu.icache.tags.occ_task_id_blocks::1024          770                       # Occupied blocks per task id
system.cpu.icache.tags.age_task_id_blocks_1024::4          770                       # Occupied blocks per task id
system.cpu.icache.tags.occ_task_id_percent::1024     0.375977                       # Percentage of cache occupancy per task id
system.cpu.icache.tags.tag_accesses         141537909                       # Number of tag accesses
system.cpu.icache.tags.data_accesses        141537909                       # Number of data accesses
system.cpu.icache.ReadReq_hits::cpu.inst     70767702                       # number of ReadReq hits
system.cpu.icache.ReadReq_hits::total        70767702                       # number of ReadReq hits
system.cpu.icache.demand_hits::cpu.inst      70767702                       # number of demand (read+write) hits
system.cpu.icache.demand_hits::total         70767702                       # number of demand (read+write) hits
system.cpu.icache.overall_hits::cpu.inst     70767702                       # number of overall hits
system.cpu.icache.overall_hits::total        70767702                       # number of overall hits
system.cpu.icache.ReadReq_misses::cpu.inst          835                       # number of ReadReq misses
system.cpu.icache.ReadReq_misses::total           835                       # number of ReadReq misses
system.cpu.icache.demand_misses::cpu.inst          835                       # number of demand (read+write) misses
system.cpu.icache.demand_misses::total            835                       # number of demand (read+write) misses
system.cpu.icache.overall_misses::cpu.inst          835                       # number of overall misses
system.cpu.icache.overall_misses::total           835                       # number of overall misses
system.cpu.icache.ReadReq_miss_latency::cpu.inst     65815500                       # number of ReadReq miss cycles
system.cpu.icache.ReadReq_miss_latency::total     65815500                       # number of ReadReq miss cycles
system.cpu.icache.demand_miss_latency::cpu.inst     65815500                       # number of demand (read+write) miss cycles
system.cpu.icache.demand_miss_latency::total     65815500                       # number of demand (read+write) miss cycles
system.cpu.icache.overall_miss_latency::cpu.inst     65815500                       # number of overall miss cycles
system.cpu.icache.overall_miss_latency::total     65815500                       # number of overall miss cycles
system.cpu.icache.ReadReq_accesses::cpu.inst     70768537                       # number of ReadReq accesses(hits+misses)
system.cpu.icache.ReadReq_accesses::total     70768537                       # number of ReadReq accesses(hits+misses)
system.cpu.icache.demand_accesses::cpu.inst     70768537                       # number of demand (read+write) accesses
system.cpu.icache.demand_accesses::total     70768537                       # number of demand (read+write) accesses
system.cpu.icache.overall_accesses::cpu.inst     70768537                       # number of overall (read+write) accesses
system.cpu.icache.overall_accesses::total     70768537                       # number of overall (read+write) accesses
system.cpu.icache.ReadReq_miss_rate::cpu.inst     0.000012                       # miss rate for ReadReq accesses
system.cpu.icache.ReadReq_miss_rate::total     0.000012                       # miss rate for ReadReq accesses
system.cpu.icache.demand_miss_rate::cpu.inst     0.000012                       # miss rate for demand accesses
system.cpu.icache.demand_miss_rate::total     0.000012                       # miss rate for demand accesses
system.cpu.icache.overall_miss_rate::cpu.inst     0.000012                       # miss rate for overall accesses
system.cpu.icache.overall_miss_rate::total     0.000012                       # miss rate for overall accesses
system.cpu.icache.ReadReq_avg_miss_latency::cpu.inst 78820.958084                       # average ReadReq miss latency
system.cpu.icache.ReadReq_avg_miss_latency::total 78820.958084                       # average ReadReq miss latency
system.cpu.icache.demand_avg_miss_latency::cpu.inst 78820.958084                       # average overall miss latency
system.cpu.icache.demand_avg_miss_latency::total 78820.958084                       # average overall miss latency
system.cpu.icache.overall_avg_miss_latency::cpu.inst 78820.958084                       # average overall miss latency
system.cpu.icache.overall_avg_miss_latency::total 78820.958084                       # average overall miss latency
system.cpu.icache.blocked_cycles::no_mshrs            0                       # number of cycles access was blocked
system.cpu.icache.blocked_cycles::no_targets            0                       # number of cycles access was blocked
system.cpu.icache.blocked::no_mshrs                 0                       # number of cycles access was blocked
system.cpu.icache.blocked::no_targets               0                       # number of cycles access was blocked
system.cpu.icache.avg_blocked_cycles::no_mshrs          nan                       # average number of cycles each access was blocked
system.cpu.icache.avg_blocked_cycles::no_targets          nan                       # average number of cycles each access was blocked
system.cpu.icache.fast_writes                       0                       # number of fast writes performed
system.cpu.icache.cache_copies                      0                       # number of cache copies performed
system.cpu.icache.writebacks::writebacks           65                       # number of writebacks
system.cpu.icache.writebacks::total                65                       # number of writebacks
system.cpu.icache.ReadReq_mshr_misses::cpu.inst          835                       # number of ReadReq MSHR misses
system.cpu.icache.ReadReq_mshr_misses::total          835                       # number of ReadReq MSHR misses
system.cpu.icache.demand_mshr_misses::cpu.inst          835                       # number of demand (read+write) MSHR misses
system.cpu.icache.demand_mshr_misses::total          835                       # number of demand (read+write) MSHR misses
system.cpu.icache.overall_mshr_misses::cpu.inst          835                       # number of overall MSHR misses
system.cpu.icache.overall_mshr_misses::total          835                       # number of overall MSHR misses
system.cpu.icache.ReadReq_mshr_miss_latency::cpu.inst     64980500                       # number of ReadReq MSHR miss cycles
system.cpu.icache.ReadReq_mshr_miss_latency::total     64980500                       # number of ReadReq MSHR miss cycles
system.cpu.icache.demand_mshr_miss_latency::cpu.inst     64980500                       # number of demand (read+write) MSHR miss cycles
system.cpu.icache.demand_mshr_miss_latency::total     64980500                       # number of demand (read+write) MSHR miss cycles
system.cpu.icache.overall_mshr_miss_latency::cpu.inst     64980500                       # number of overall MSHR miss cycles
system.cpu.icache.overall_mshr_miss_latency::total     64980500                       # number of overall MSHR miss cycles
system.cpu.icache.ReadReq_mshr_miss_rate::cpu.inst     0.000012                       # mshr miss rate for ReadReq accesses
system.cpu.icache.ReadReq_mshr_miss_rate::total     0.000012                       # mshr miss rate for ReadReq accesses
system.cpu.icache.demand_mshr_miss_rate::cpu.inst     0.000012                       # mshr miss rate for demand accesses
system.cpu.icache.demand_mshr_miss_rate::total     0.000012                       # mshr miss rate for demand accesses
system.cpu.icache.overall_mshr_miss_rate::cpu.inst     0.000012                       # mshr miss rate for overall accesses
system.cpu.icache.overall_mshr_miss_rate::total     0.000012                       # mshr miss rate for overall accesses
system.cpu.icache.ReadReq_avg_mshr_miss_latency::cpu.inst 77820.958084                       # average ReadReq mshr miss latency
system.cpu.icache.ReadReq_avg_mshr_miss_latency::total 77820.958084                       # average ReadReq mshr miss latency
system.cpu.icache.demand_avg_mshr_miss_latency::cpu.inst 77820.958084                       # average overall mshr miss latency
system.cpu.icache.demand_avg_mshr_miss_latency::total 77820.958084                       # average overall mshr miss latency
system.cpu.icache.overall_avg_mshr_miss_latency::cpu.inst 77820.958084                       # average overall mshr miss latency
system.cpu.icache.overall_avg_mshr_miss_latency::total 77820.958084                       # average overall mshr miss latency
system.cpu.icache.no_allocate_misses                0                       # Number of misses that were no-allocate
system.cpu.itb_walker_cache.tags.replacements            0                       # number of replacements
system.cpu.itb_walker_cache.tags.tagsinuse            0                       # Cycle average of tags in use
system.cpu.itb_walker_cache.tags.total_refs            0                       # Total number of references to valid blocks.
system.cpu.itb_walker_cache.tags.sampled_refs            0                       # Sample count of references to valid blocks.
system.cpu.itb_walker_cache.tags.avg_refs          nan                       # Average number of references to valid blocks.
system.cpu.itb_walker_cache.tags.warmup_cycle            0                       # Cycle when the warmup percentage was hit.
system.cpu.itb_walker_cache.tags.tag_accesses            0                       # Number of tag accesses
system.cpu.itb_walker_cache.tags.data_accesses            0                       # Number of data accesses
system.cpu.itb_walker_cache.blocked_cycles::no_mshrs            0                       # number of cycles access was blocked
system.cpu.itb_walker_cache.blocked_cycles::no_targets            0                       # number of cycles access was blocked
system.cpu.itb_walker_cache.blocked::no_mshrs            0                       # number of cycles access was blocked
system.cpu.itb_walker_cache.blocked::no_targets            0                       # number of cycles access was blocked
system.cpu.itb_walker_cache.avg_blocked_cycles::no_mshrs          nan                       # average number of cycles each access was blocked
system.cpu.itb_walker_cache.avg_blocked_cycles::no_targets          nan                       # average number of cycles each access was blocked
system.cpu.itb_walker_cache.fast_writes             0                       # number of fast writes performed
system.cpu.itb_walker_cache.cache_copies            0                       # number of cache copies performed
system.cpu.itb_walker_cache.no_allocate_misses            0                       # Number of misses that were no-allocate
system.l2.tags.replacements                   5434045                       # number of replacements
system.l2.tags.tagsinuse                 941075.932936                       # Cycle average of tags in use
system.l2.tags.total_refs                         516                       # Total number of references to valid blocks.
system.l2.tags.sampled_refs                   6480573                       # Sample count of references to valid blocks.
system.l2.tags.avg_refs                      0.000080                       # Average number of references to valid blocks.
system.l2.tags.warmup_cycle                         0                       # Cycle when the warmup percentage was hit.
system.l2.tags.occ_blocks::writebacks    941058.393453                       # Average occupied blocks per requestor
system.l2.tags.occ_blocks::cpu.inst         10.946648                       # Average occupied blocks per requestor
system.l2.tags.occ_blocks::cpu.data          6.592902                       # Average occupied blocks per requestor
system.l2.tags.occ_percent::writebacks       0.897463                       # Average percentage of cache occupancy
system.l2.tags.occ_percent::cpu.inst         0.000010                       # Average percentage of cache occupancy
system.l2.tags.occ_percent::cpu.data         0.000006                       # Average percentage of cache occupancy
system.l2.tags.occ_percent::total            0.897480                       # Average percentage of cache occupancy
system.l2.tags.occ_task_id_blocks::1024       1046528                       # Occupied blocks per task id
system.l2.tags.age_task_id_blocks_1024::0          102                       # Occupied blocks per task id
system.l2.tags.age_task_id_blocks_1024::1          915                       # Occupied blocks per task id
system.l2.tags.age_task_id_blocks_1024::2         9138                       # Occupied blocks per task id
system.l2.tags.age_task_id_blocks_1024::3        91423                       # Occupied blocks per task id
system.l2.tags.age_task_id_blocks_1024::4       944950                       # Occupied blocks per task id
system.l2.tags.occ_task_id_percent::1024     0.998047                       # Percentage of cache occupancy per task id
system.l2.tags.tag_accesses                  25924758                       # Number of tag accesses
system.l2.tags.data_accesses                 25924758                       # Number of data accesses
system.l2.WritebackDirty_hits::writebacks      6479582                       # number of WritebackDirty hits
system.l2.WritebackDirty_hits::total          6479582                       # number of WritebackDirty hits
system.l2.WritebackClean_hits::writebacks           65                       # number of WritebackClean hits
system.l2.WritebackClean_hits::total               65                       # number of WritebackClean hits
system.l2.ReadExReq_hits::cpu.data                 88                       # number of ReadExReq hits
system.l2.ReadExReq_hits::total                    88                       # number of ReadExReq hits
system.l2.ReadCleanReq_hits::cpu.inst              34                       # number of ReadCleanReq hits
system.l2.ReadCleanReq_hits::total                 34                       # number of ReadCleanReq hits
system.l2.ReadSharedReq_hits::cpu.data             15                       # number of ReadSharedReq hits
system.l2.ReadSharedReq_hits::total                15                       # number of ReadSharedReq hits
system.l2.demand_hits::cpu.inst                    34                       # number of demand (read+write) hits
system.l2.demand_hits::cpu.data                   103                       # number of demand (read+write) hits
system.l2.demand_hits::total                      137                       # number of demand (read+write) hits
system.l2.overall_hits::cpu.inst                   34                       # number of overall hits
system.l2.overall_hits::cpu.data                  103                       # number of overall hits
system.l2.overall_hits::total                     137                       # number of overall hits
system.l2.ReadExReq_misses::cpu.data          6481460                       # number of ReadExReq misses
system.l2.ReadExReq_misses::total             6481460                       # number of ReadExReq misses
system.l2.ReadCleanReq_misses::cpu.inst           801                       # number of ReadCleanReq misses
system.l2.ReadCleanReq_misses::total              801                       # number of ReadCleanReq misses
system.l2.ReadSharedReq_misses::cpu.data          330                       # number of ReadSharedReq misses
system.l2.ReadSharedReq_misses::total             330                       # number of ReadSharedReq misses
system.l2.demand_misses::cpu.inst                 801                       # number of demand (read+write) misses
system.l2.demand_misses::cpu.data             6481790                       # number of demand (read+write) misses
system.l2.demand_misses::total                6482591                       # number of demand (read+write) misses
system.l2.overall_misses::cpu.inst                801                       # number of overall misses
system.l2.overall_misses::cpu.data            6481790                       # number of overall misses
system.l2.overall_misses::total               6482591                       # number of overall misses
system.l2.ReadExReq_miss_latency::cpu.data 504664084500                       # number of ReadExReq miss cycles
system.l2.ReadExReq_miss_latency::total  504664084500                       # number of ReadExReq miss cycles
system.l2.ReadCleanReq_miss_latency::cpu.inst     63365000                       # number of ReadCleanReq miss cycles
system.l2.ReadCleanReq_miss_latency::total     63365000                       # number of ReadCleanReq miss cycles
system.l2.ReadSharedReq_miss_latency::cpu.data     28107000                       # number of ReadSharedReq miss cycles
system.l2.ReadSharedReq_miss_latency::total     28107000                       # number of ReadSharedReq miss cycles
system.l2.demand_miss_latency::cpu.inst      63365000                       # number of demand (read+write) miss cycles
system.l2.demand_miss_latency::cpu.data  504692191500                       # number of demand (read+write) miss cycles
system.l2.demand_miss_latency::total     504755556500                       # number of demand (read+write) miss cycles
system.l2.overall_miss_latency::cpu.inst     63365000                       # number of overall miss cycles
system.l2.overall_miss_latency::cpu.data 504692191500                       # number of overall miss cycles
system.l2.overall_miss_latency::total    504755556500                       # number of overall miss cycles
system.l2.WritebackDirty_accesses::writebacks      6479582                       # number of WritebackDirty accesses(hits+misses)
system.l2.WritebackDirty_accesses::total      6479582                       # number of WritebackDirty accesses(hits+misses)
system.l2.WritebackClean_accesses::writebacks           65                       # number of WritebackClean accesses(hits+misses)
system.l2.WritebackClean_accesses::total           65                       # number of WritebackClean accesses(hits+misses)
system.l2.ReadExReq_accesses::cpu.data        6481548                       # number of ReadExReq accesses(hits+misses)
system.l2.ReadExReq_accesses::total           6481548                       # number of ReadExReq accesses(hits+misses)
system.l2.ReadCleanReq_accesses::cpu.inst          835                       # number of ReadCleanReq accesses(hits+misses)
system.l2.ReadCleanReq_accesses::total            835                       # number of ReadCleanReq accesses(hits+misses)
system.l2.ReadSharedReq_accesses::cpu.data          345                       # number of ReadSharedReq accesses(hits+misses)
system.l2.ReadSharedReq_accesses::total           345                       # number of ReadSharedReq accesses(hits+misses)
system.l2.demand_accesses::cpu.inst               835                       # number of demand (read+write) accesses
system.l2.demand_accesses::cpu.data           6481893                       # number of demand (read+write) accesses
system.l2.demand_accesses::total              6482728                       # number of demand (read+write) accesses
system.l2.overall_accesses::cpu.inst              835                       # number of overall (read+write) accesses
system.l2.overall_accesses::cpu.data          6481893                       # number of overall (read+write) accesses
system.l2.overall_accesses::total             6482728                       # number of overall (read+write) accesses
system.l2.ReadExReq_miss_rate::cpu.data      0.999986                       # miss rate for ReadExReq accesses
system.l2.ReadExReq_miss_rate::total         0.999986                       # miss rate for ReadExReq accesses
system.l2.ReadCleanReq_miss_rate::cpu.inst     0.959281                       # miss rate for ReadCleanReq accesses
system.l2.ReadCleanReq_miss_rate::total      0.959281                       # miss rate for ReadCleanReq accesses
system.l2.ReadSharedReq_miss_rate::cpu.data     0.956522                       # miss rate for ReadSharedReq accesses
system.l2.ReadSharedReq_miss_rate::total     0.956522                       # miss rate for ReadSharedReq accesses
system.l2.demand_miss_rate::cpu.inst         0.959281                       # miss rate for demand accesses
system.l2.demand_miss_rate::cpu.data         0.999984                       # miss rate for demand accesses
system.l2.demand_miss_rate::total            0.999979                       # miss rate for demand accesses
system.l2.overall_miss_rate::cpu.inst        0.959281                       # miss rate for overall accesses
system.l2.overall_miss_rate::cpu.data        0.999984                       # miss rate for overall accesses
system.l2.overall_miss_rate::total           0.999979                       # miss rate for overall accesses
system.l2.ReadExReq_avg_miss_latency::cpu.data 77862.716811                       # average ReadExReq miss latency
system.l2.ReadExReq_avg_miss_latency::total 77862.716811                       # average ReadExReq miss latency
system.l2.ReadCleanReq_avg_miss_latency::cpu.inst 79107.365793                       # average ReadCleanReq miss latency
system.l2.ReadCleanReq_avg_miss_latency::total 79107.365793                       # average ReadCleanReq miss latency
system.l2.ReadSharedReq_avg_miss_latency::cpu.data 85172.727273                       # average ReadSharedReq miss latency
system.l2.ReadSharedReq_avg_miss_latency::total 85172.727273                       # average ReadSharedReq miss latency
system.l2.demand_avg_miss_latency::cpu.inst 79107.365793                       # average overall miss latency
system.l2.demand_avg_miss_latency::cpu.data 77863.088977                       # average overall miss latency
system.l2.demand_avg_miss_latency::total 77863.242722                       # average overall miss latency
system.l2.overall_avg_miss_latency::cpu.inst 79107.365793                       # average overall miss latency
system.l2.overall_avg_miss_latency::cpu.data 77863.088977                       # average overall miss latency
system.l2.overall_avg_miss_latency::total 77863.242722                       # average overall miss latency
system.l2.blocked_cycles::no_mshrs                  0                       # number of cycles access was blocked
system.l2.blocked_cycles::no_targets                0                       # number of cycles access was blocked
system.l2.blocked::no_mshrs                         0                       # number of cycles access was blocked
system.l2.blocked::no_targets                       0                       # number of cycles access was blocked
system.l2.avg_blocked_cycles::no_mshrs            nan                       # average number of cycles each access was blocked
system.l2.avg_blocked_cycles::no_targets          nan                       # average number of cycles each access was blocked
system.l2.fast_writes                               0                       # number of fast writes performed
system.l2.cache_copies                              0                       # number of cache copies performed
system.l2.writebacks::writebacks              5432958                       # number of writebacks
system.l2.writebacks::total                   5432958                       # number of writebacks
system.l2.ReadExReq_mshr_misses::cpu.data      6481460                       # number of ReadExReq MSHR misses
system.l2.ReadExReq_mshr_misses::total        6481460                       # number of ReadExReq MSHR misses
system.l2.ReadCleanReq_mshr_misses::cpu.inst          801                       # number of ReadCleanReq MSHR misses
system.l2.ReadCleanReq_mshr_misses::total          801                       # number of ReadCleanReq MSHR misses
system.l2.ReadSharedReq_mshr_misses::cpu.data          330                       # number of ReadSharedReq MSHR misses
system.l2.ReadSharedReq_mshr_misses::total          330                       # number of ReadSharedReq MSHR misses
system.l2.demand_mshr_misses::cpu.inst            801                       # number of demand (read+write) MSHR misses
system.l2.demand_mshr_misses::cpu.data        6481790                       # number of demand (read+write) MSHR misses
system.l2.demand_mshr_misses::total           6482591                       # number of demand (read+write) MSHR misses
system.l2.overall_mshr_misses::cpu.inst           801                       # number of overall MSHR misses
system.l2.overall_mshr_misses::cpu.data       6481790                       # number of overall MSHR misses
system.l2.overall_mshr_misses::total          6482591                       # number of overall MSHR misses
system.l2.ReadExReq_mshr_miss_latency::cpu.data 439849484500                       # number of ReadExReq MSHR miss cycles
system.l2.ReadExReq_mshr_miss_latency::total 439849484500                       # number of ReadExReq MSHR miss cycles
system.l2.ReadCleanReq_mshr_miss_latency::cpu.inst     55355000                       # number of ReadCleanReq MSHR miss cycles
system.l2.ReadCleanReq_mshr_miss_latency::total     55355000                       # number of ReadCleanReq MSHR miss cycles
system.l2.ReadSharedReq_mshr_miss_latency::cpu.data     24807000                       # number of ReadSharedReq MSHR miss cycles
system.l2.ReadSharedReq_mshr_miss_latency::total     24807000                       # number of ReadSharedReq MSHR miss cycles
system.l2.demand_mshr_miss_latency::cpu.inst     55355000                       # number of demand (read+write) MSHR miss cycles
system.l2.demand_mshr_miss_latency::cpu.data 439874291500                       # number of demand (read+write) MSHR miss cycles
system.l2.demand_mshr_miss_latency::total 439929646500                       # number of demand (read+write) MSHR miss cycles
system.l2.overall_mshr_miss_latency::cpu.inst     55355000                       # number of overall MSHR miss cycles
system.l2.overall_mshr_miss_latency::cpu.data 439874291500                       # number of overall MSHR miss cycles
system.l2.overall_mshr_miss_latency::total 439929646500                       # number of overall MSHR miss cycles
system.l2.ReadExReq_mshr_miss_rate::cpu.data     0.999986                       # mshr miss rate for ReadExReq accesses
system.l2.ReadExReq_mshr_miss_rate::total     0.999986                       # mshr miss rate for ReadExReq accesses
system.l2.ReadCleanReq_mshr_miss_rate::cpu.inst     0.959281                       # mshr miss rate for ReadCleanReq accesses
system.l2.ReadCleanReq_mshr_miss_rate::total     0.959281                       # mshr miss rate for ReadCleanReq accesses
system.l2.ReadSharedReq_mshr_miss_rate::cpu.data     0.956522                       # mshr miss rate for ReadSharedReq accesses
system.l2.ReadSharedReq_mshr_miss_rate::total     0.956522                       # mshr miss rate for ReadSharedReq accesses
system.l2.demand_mshr_miss_rate::cpu.inst     0.959281                       # mshr miss rate for demand accesses
system.l2.demand_mshr_miss_rate::cpu.data     0.999984                       # mshr miss rate for demand accesses
system.l2.demand_mshr_miss_rate::total       0.999979                       # mshr miss rate for demand accesses
system.l2.overall_mshr_miss_rate::cpu.inst     0.959281                       # mshr miss rate for overall accesses
system.l2.overall_mshr_miss_rate::cpu.data     0.999984                       # mshr miss rate for overall accesses
system.l2.overall_mshr_miss_rate::total      0.999979                       # mshr miss rate for overall accesses
system.l2.ReadExReq_avg_mshr_miss_latency::cpu.data 67862.716811                       # average ReadExReq mshr miss latency
system.l2.ReadExReq_avg_mshr_miss_latency::total 67862.716811                       # average ReadExReq mshr miss latency
system.l2.ReadCleanReq_avg_mshr_miss_latency::cpu.inst 69107.365793                       # average ReadCleanReq mshr miss latency
system.l2.ReadCleanReq_avg_mshr_miss_latency::total 69107.365793                       # average ReadCleanReq mshr miss latency
system.l2.ReadSharedReq_avg_mshr_miss_latency::cpu.data 75172.727273                       # average ReadSharedReq mshr miss latency
system.l2.ReadSharedReq_avg_mshr_miss_latency::total 75172.727273                       # average ReadSharedReq mshr miss latency
system.l2.demand_avg_mshr_miss_latency::cpu.inst 69107.365793                       # average overall mshr miss latency
system.l2.demand_avg_mshr_miss_latency::cpu.data 67863.088977                       # average overall mshr miss latency
system.l2.demand_avg_mshr_miss_latency::total 67863.242722                       # average overall mshr miss latency
system.l2.overall_avg_mshr_miss_latency::cpu.inst 69107.365793                       # average overall mshr miss latency
system.l2.overall_avg_mshr_miss_latency::cpu.data 67863.088977                       # average overall mshr miss latency
system.l2.overall_avg_mshr_miss_latency::total 67863.242722                       # average overall mshr miss latency
system.l2.no_allocate_misses                        0                       # Number of misses that were no-allocate
system.membus.trans_dist::ReadResp               1131                       # Transaction distribution
system.membus.trans_dist::WritebackDirty      5432958                       # Transaction distribution
system.membus.trans_dist::CleanEvict              287                       # Transaction distribution
system.membus.trans_dist::ReadExReq           6481460                       # Transaction distribution
system.membus.trans_dist::ReadExResp          6481460                       # Transaction distribution
system.membus.trans_dist::ReadSharedReq          1131                       # Transaction distribution
system.membus.pkt_count_system.l2.mem_side::system.mem_ctrls.port     18398427                       # Packet count per connected master and slave (bytes)
system.membus.pkt_count_system.l2.mem_side::total     18398427                       # Packet count per connected master and slave (bytes)
system.membus.pkt_count::total               18398427                       # Packet count per connected master and slave (bytes)
system.membus.pkt_size_system.l2.mem_side::system.mem_ctrls.port    762595136                       # Cumulative packet size per connected master and slave (bytes)
system.membus.pkt_size_system.l2.mem_side::total    762595136                       # Cumulative packet size per connected master and slave (bytes)
system.membus.pkt_size::total               762595136                       # Cumulative packet size per connected master and slave (bytes)
system.membus.snoops                                0                       # Total snoops (count)
system.membus.snoop_fanout::samples          11915836                       # Request fanout histogram
system.membus.snoop_fanout::mean                    0                       # Request fanout histogram
system.membus.snoop_fanout::stdev                   0                       # Request fanout histogram
system.membus.snoop_fanout::underflows              0      0.00%      0.00% # Request fanout histogram
system.membus.snoop_fanout::0                11915836    100.00%    100.00% # Request fanout histogram
system.membus.snoop_fanout::1                       0      0.00%    100.00% # Request fanout histogram
system.membus.snoop_fanout::overflows               0      0.00%    100.00% # Request fanout histogram
system.membus.snoop_fanout::min_value               0                       # Request fanout histogram
system.membus.snoop_fanout::max_value               0                       # Request fanout histogram
system.membus.snoop_fanout::total            11915836                       # Request fanout histogram
system.membus.reqLayer2.occupancy         33647675000                       # Layer occupancy (ticks)
system.membus.reqLayer2.utilization               5.3                       # Layer utilization (%)
system.membus.respLayer1.occupancy        34104947250                       # Layer occupancy (ticks)
system.membus.respLayer1.utilization              5.3                       # Layer utilization (%)
system.tol2bus.snoop_filter.tot_requests     12962638                       # Total number of requests made to the snoop filter.
system.tol2bus.snoop_filter.hit_single_requests      6479910                       # Number of requests hitting in the snoop filter with a single holder of the requested data.
system.tol2bus.snoop_filter.hit_multi_requests            1                       # Number of requests hitting in the snoop filter with multiple (>1) holders of the requested data.
system.tol2bus.snoop_filter.tot_snoops            800                       # Total number of snoops made to the snoop filter.
system.tol2bus.snoop_filter.hit_single_snoops          800                       # Number of snoops hitting in the snoop filter with a single holder of the requested data.
system.tol2bus.snoop_filter.hit_multi_snoops            0                       # Number of snoops hitting in the snoop filter with multiple (>1) holders of the requested data.
system.tol2bus.trans_dist::ReadResp              1180                       # Transaction distribution
system.tol2bus.trans_dist::WritebackDirty     11912540                       # Transaction distribution
system.tol2bus.trans_dist::WritebackClean           65                       # Transaction distribution
system.tol2bus.trans_dist::CleanEvict            1349                       # Transaction distribution
system.tol2bus.trans_dist::ReadExReq          6481548                       # Transaction distribution
system.tol2bus.trans_dist::ReadExResp         6481548                       # Transaction distribution
system.tol2bus.trans_dist::ReadCleanReq           835                       # Transaction distribution
system.tol2bus.trans_dist::ReadSharedReq          345                       # Transaction distribution
system.tol2bus.pkt_count_system.cpu.icache.mem_side::system.l2.cpu_side         1735                       # Packet count per connected master and slave (bytes)
system.tol2bus.pkt_count_system.cpu.dcache.mem_side::system.l2.cpu_side     19443630                       # Packet count per connected master and slave (bytes)
system.tol2bus.pkt_count::total              19445365                       # Packet count per connected master and slave (bytes)
system.tol2bus.pkt_size_system.cpu.icache.mem_side::system.l2.cpu_side        57600                       # Cumulative packet size per connected master and slave (bytes)
system.tol2bus.pkt_size_system.cpu.dcache.mem_side::system.l2.cpu_side    829534400                       # Cumulative packet size per connected master and slave (bytes)
system.tol2bus.pkt_size::total              829592000                       # Cumulative packet size per connected master and slave (bytes)
system.tol2bus.snoops                         5434045                       # Total snoops (count)
system.tol2bus.snoop_fanout::samples         11916773                       # Request fanout histogram
system.tol2bus.snoop_fanout::mean            0.000067                       # Request fanout histogram
system.tol2bus.snoop_fanout::stdev           0.008198                       # Request fanout histogram
system.tol2bus.snoop_fanout::underflows             0      0.00%      0.00% # Request fanout histogram
system.tol2bus.snoop_fanout::0               11915972     99.99%     99.99% # Request fanout histogram
system.tol2bus.snoop_fanout::1                    801      0.01%    100.00% # Request fanout histogram
system.tol2bus.snoop_fanout::2                      0      0.00%    100.00% # Request fanout histogram
system.tol2bus.snoop_fanout::3                      0      0.00%    100.00% # Request fanout histogram
system.tol2bus.snoop_fanout::4                      0      0.00%    100.00% # Request fanout histogram
system.tol2bus.snoop_fanout::overflows              0      0.00%    100.00% # Request fanout histogram
system.tol2bus.snoop_fanout::min_value              0                       # Request fanout histogram
system.tol2bus.snoop_fanout::max_value              1                       # Request fanout histogram
system.tol2bus.snoop_fanout::total           11916773                       # Request fanout histogram
system.tol2bus.reqLayer0.occupancy        12960966000                       # Layer occupancy (ticks)
system.tol2bus.reqLayer0.utilization              2.0                       # Layer utilization (%)
system.tol2bus.respLayer0.occupancy           1252500                       # Layer occupancy (ticks)
system.tol2bus.respLayer0.utilization             0.0                       # Layer utilization (%)
system.tol2bus.respLayer1.occupancy        9722839500                       # Layer occupancy (ticks)
system.tol2bus.respLayer1.utilization             1.5                       # Layer utilization (%)

---------- End Simulation Statistics   ----------
