
---------- Begin Simulation Statistics ----------
sim_seconds                                  0.095708                       # Number of seconds simulated
sim_ticks                                 95708109500                       # Number of ticks simulated
final_tick                                95708109500                       # Number of ticks from beginning of simulation (restored from checkpoints and never reset)
sim_freq                                 1000000000000                       # Frequency of simulated ticks
host_inst_rate                                 225485                       # Simulator instruction rate (inst/s)
host_op_rate                                   293197                       # Simulator op (including micro ops) rate (op/s)
host_tick_rate                              431614549                       # Simulator tick rate (ticks/s)
host_mem_usage                                 838532                       # Number of bytes of host memory used
host_seconds                                   221.74                       # Real time elapsed on the host
sim_insts                                    50000001                       # Number of instructions simulated
sim_ops                                      65014771                       # Number of ops (including micro ops) simulated
system.voltage_domain.voltage                       1                       # Voltage in Volts
system.clk_domain.clock                          1000                       # Clock period in ticks
system.mem_ctrls.bytes_read::cpu.inst           87488                       # Number of bytes read from this memory
system.mem_ctrls.bytes_read::cpu.data          242752                       # Number of bytes read from this memory
system.mem_ctrls.bytes_read::total             330240                       # Number of bytes read from this memory
system.mem_ctrls.bytes_inst_read::cpu.inst        87488                       # Number of instructions bytes read from this memory
system.mem_ctrls.bytes_inst_read::total         87488                       # Number of instructions bytes read from this memory
system.mem_ctrls.bytes_written::writebacks         2368                       # Number of bytes written to this memory
system.mem_ctrls.bytes_written::total            2368                       # Number of bytes written to this memory
system.mem_ctrls.num_reads::cpu.inst             1367                       # Number of read requests responded to by this memory
system.mem_ctrls.num_reads::cpu.data             3793                       # Number of read requests responded to by this memory
system.mem_ctrls.num_reads::total                5160                       # Number of read requests responded to by this memory
system.mem_ctrls.num_writes::writebacks            37                       # Number of write requests responded to by this memory
system.mem_ctrls.num_writes::total                 37                       # Number of write requests responded to by this memory
system.mem_ctrls.bw_read::cpu.inst             914113                       # Total read bandwidth from this memory (bytes/s)
system.mem_ctrls.bw_read::cpu.data            2536379                       # Total read bandwidth from this memory (bytes/s)
system.mem_ctrls.bw_read::total               3450491                       # Total read bandwidth from this memory (bytes/s)
system.mem_ctrls.bw_inst_read::cpu.inst        914113                       # Instruction read bandwidth from this memory (bytes/s)
system.mem_ctrls.bw_inst_read::total           914113                       # Instruction read bandwidth from this memory (bytes/s)
system.mem_ctrls.bw_write::writebacks           24742                       # Write bandwidth from this memory (bytes/s)
system.mem_ctrls.bw_write::total                24742                       # Write bandwidth from this memory (bytes/s)
system.mem_ctrls.bw_total::writebacks           24742                       # Total bandwidth to/from this memory (bytes/s)
system.mem_ctrls.bw_total::cpu.inst            914113                       # Total bandwidth to/from this memory (bytes/s)
system.mem_ctrls.bw_total::cpu.data           2536379                       # Total bandwidth to/from this memory (bytes/s)
system.mem_ctrls.bw_total::total              3475233                       # Total bandwidth to/from this memory (bytes/s)
system.mem_ctrls.readReqs                        5160                       # Number of read requests accepted
system.mem_ctrls.writeReqs                         37                       # Number of write requests accepted
system.mem_ctrls.readBursts                      5160                       # Number of DRAM read bursts, including those serviced by the write queue
system.mem_ctrls.writeBursts                       37                       # Number of DRAM write bursts, including those merged in the write queue
system.mem_ctrls.bytesReadDRAM                 328320                       # Total number of bytes read from DRAM
system.mem_ctrls.bytesReadWrQ                    1920                       # Total number of bytes read from write queue
system.mem_ctrls.bytesWritten                       0                       # Total number of bytes written to DRAM
system.mem_ctrls.bytesReadSys                  330240                       # Total read bytes from the system interface side
system.mem_ctrls.bytesWrittenSys                 2368                       # Total written bytes from the system interface side
system.mem_ctrls.servicedByWrQ                     30                       # Number of DRAM read bursts serviced by the write queue
system.mem_ctrls.mergedWrBursts                    23                       # Number of DRAM write bursts merged with an existing one
system.mem_ctrls.neitherReadNorWriteReqs          162                       # Number of requests that are neither read nor write
system.mem_ctrls.perBankRdBursts::0               263                       # Per bank write bursts
system.mem_ctrls.perBankRdBursts::1               218                       # Per bank write bursts
system.mem_ctrls.perBankRdBursts::2               304                       # Per bank write bursts
system.mem_ctrls.perBankRdBursts::3               190                       # Per bank write bursts
system.mem_ctrls.perBankRdBursts::4               389                       # Per bank write bursts
system.mem_ctrls.perBankRdBursts::5               277                       # Per bank write bursts
system.mem_ctrls.perBankRdBursts::6               215                       # Per bank write bursts
system.mem_ctrls.perBankRdBursts::7               283                       # Per bank write bursts
system.mem_ctrls.perBankRdBursts::8               380                       # Per bank write bursts
system.mem_ctrls.perBankRdBursts::9               390                       # Per bank write bursts
system.mem_ctrls.perBankRdBursts::10              445                       # Per bank write bursts
system.mem_ctrls.perBankRdBursts::11              463                       # Per bank write bursts
system.mem_ctrls.perBankRdBursts::12              365                       # Per bank write bursts
system.mem_ctrls.perBankRdBursts::13              320                       # Per bank write bursts
system.mem_ctrls.perBankRdBursts::14              303                       # Per bank write bursts
system.mem_ctrls.perBankRdBursts::15              325                       # Per bank write bursts
system.mem_ctrls.perBankWrBursts::0                 0                       # Per bank write bursts
system.mem_ctrls.perBankWrBursts::1                 0                       # Per bank write bursts
system.mem_ctrls.perBankWrBursts::2                 0                       # Per bank write bursts
system.mem_ctrls.perBankWrBursts::3                 0                       # Per bank write bursts
system.mem_ctrls.perBankWrBursts::4                 0                       # Per bank write bursts
system.mem_ctrls.perBankWrBursts::5                 0                       # Per bank write bursts
system.mem_ctrls.perBankWrBursts::6                 0                       # Per bank write bursts
system.mem_ctrls.perBankWrBursts::7                 0                       # Per bank write bursts
system.mem_ctrls.perBankWrBursts::8                 0                       # Per bank write bursts
system.mem_ctrls.perBankWrBursts::9                 0                       # Per bank write bursts
system.mem_ctrls.perBankWrBursts::10                0                       # Per bank write bursts
system.mem_ctrls.perBankWrBursts::11                0                       # Per bank write bursts
system.mem_ctrls.perBankWrBursts::12                0                       # Per bank write bursts
system.mem_ctrls.perBankWrBursts::13                0                       # Per bank write bursts
system.mem_ctrls.perBankWrBursts::14                0                       # Per bank write bursts
system.mem_ctrls.perBankWrBursts::15                0                       # Per bank write bursts
system.mem_ctrls.numRdRetry                         0                       # Number of times read queue was full causing retry
system.mem_ctrls.numWrRetry                         0                       # Number of times write queue was full causing retry
system.mem_ctrls.totGap                   94314891500                       # Total gap between requests
system.mem_ctrls.readPktSize::0                     0                       # Read request sizes (log2)
system.mem_ctrls.readPktSize::1                     0                       # Read request sizes (log2)
system.mem_ctrls.readPktSize::2                     0                       # Read request sizes (log2)
system.mem_ctrls.readPktSize::3                     0                       # Read request sizes (log2)
system.mem_ctrls.readPktSize::4                     0                       # Read request sizes (log2)
system.mem_ctrls.readPktSize::5                     0                       # Read request sizes (log2)
system.mem_ctrls.readPktSize::6                  5160                       # Read request sizes (log2)
system.mem_ctrls.writePktSize::0                    0                       # Write request sizes (log2)
system.mem_ctrls.writePktSize::1                    0                       # Write request sizes (log2)
system.mem_ctrls.writePktSize::2                    0                       # Write request sizes (log2)
system.mem_ctrls.writePktSize::3                    0                       # Write request sizes (log2)
system.mem_ctrls.writePktSize::4                    0                       # Write request sizes (log2)
system.mem_ctrls.writePktSize::5                    0                       # Write request sizes (log2)
system.mem_ctrls.writePktSize::6                   37                       # Write request sizes (log2)
system.mem_ctrls.rdQLenPdf::0                    4950                       # What read queue length does an incoming req see
system.mem_ctrls.rdQLenPdf::1                     164                       # What read queue length does an incoming req see
system.mem_ctrls.rdQLenPdf::2                      14                       # What read queue length does an incoming req see
system.mem_ctrls.rdQLenPdf::3                       2                       # What read queue length does an incoming req see
system.mem_ctrls.rdQLenPdf::4                       0                       # What read queue length does an incoming req see
system.mem_ctrls.rdQLenPdf::5                       0                       # What read queue length does an incoming req see
system.mem_ctrls.rdQLenPdf::6                       0                       # What read queue length does an incoming req see
system.mem_ctrls.rdQLenPdf::7                       0                       # What read queue length does an incoming req see
system.mem_ctrls.rdQLenPdf::8                       0                       # What read queue length does an incoming req see
system.mem_ctrls.rdQLenPdf::9                       0                       # What read queue length does an incoming req see
system.mem_ctrls.rdQLenPdf::10                      0                       # What read queue length does an incoming req see
system.mem_ctrls.rdQLenPdf::11                      0                       # What read queue length does an incoming req see
system.mem_ctrls.rdQLenPdf::12                      0                       # What read queue length does an incoming req see
system.mem_ctrls.rdQLenPdf::13                      0                       # What read queue length does an incoming req see
system.mem_ctrls.rdQLenPdf::14                      0                       # What read queue length does an incoming req see
system.mem_ctrls.rdQLenPdf::15                      0                       # What read queue length does an incoming req see
system.mem_ctrls.rdQLenPdf::16                      0                       # What read queue length does an incoming req see
system.mem_ctrls.rdQLenPdf::17                      0                       # What read queue length does an incoming req see
system.mem_ctrls.rdQLenPdf::18                      0                       # What read queue length does an incoming req see
system.mem_ctrls.rdQLenPdf::19                      0                       # What read queue length does an incoming req see
system.mem_ctrls.rdQLenPdf::20                      0                       # What read queue length does an incoming req see
system.mem_ctrls.rdQLenPdf::21                      0                       # What read queue length does an incoming req see
system.mem_ctrls.rdQLenPdf::22                      0                       # What read queue length does an incoming req see
system.mem_ctrls.rdQLenPdf::23                      0                       # What read queue length does an incoming req see
system.mem_ctrls.rdQLenPdf::24                      0                       # What read queue length does an incoming req see
system.mem_ctrls.rdQLenPdf::25                      0                       # What read queue length does an incoming req see
system.mem_ctrls.rdQLenPdf::26                      0                       # What read queue length does an incoming req see
system.mem_ctrls.rdQLenPdf::27                      0                       # What read queue length does an incoming req see
system.mem_ctrls.rdQLenPdf::28                      0                       # What read queue length does an incoming req see
system.mem_ctrls.rdQLenPdf::29                      0                       # What read queue length does an incoming req see
system.mem_ctrls.rdQLenPdf::30                      0                       # What read queue length does an incoming req see
system.mem_ctrls.rdQLenPdf::31                      0                       # What read queue length does an incoming req see
system.mem_ctrls.wrQLenPdf::0                       1                       # What write queue length does an incoming req see
system.mem_ctrls.wrQLenPdf::1                       1                       # What write queue length does an incoming req see
system.mem_ctrls.wrQLenPdf::2                       1                       # What write queue length does an incoming req see
system.mem_ctrls.wrQLenPdf::3                       1                       # What write queue length does an incoming req see
system.mem_ctrls.wrQLenPdf::4                       1                       # What write queue length does an incoming req see
system.mem_ctrls.wrQLenPdf::5                       1                       # What write queue length does an incoming req see
system.mem_ctrls.wrQLenPdf::6                       1                       # What write queue length does an incoming req see
system.mem_ctrls.wrQLenPdf::7                       1                       # What write queue length does an incoming req see
system.mem_ctrls.wrQLenPdf::8                       1                       # What write queue length does an incoming req see
system.mem_ctrls.wrQLenPdf::9                       1                       # What write queue length does an incoming req see
system.mem_ctrls.wrQLenPdf::10                      1                       # What write queue length does an incoming req see
system.mem_ctrls.wrQLenPdf::11                      1                       # What write queue length does an incoming req see
system.mem_ctrls.wrQLenPdf::12                      1                       # What write queue length does an incoming req see
system.mem_ctrls.wrQLenPdf::13                      1                       # What write queue length does an incoming req see
system.mem_ctrls.wrQLenPdf::14                      0                       # What write queue length does an incoming req see
system.mem_ctrls.wrQLenPdf::15                      0                       # What write queue length does an incoming req see
system.mem_ctrls.wrQLenPdf::16                      0                       # What write queue length does an incoming req see
system.mem_ctrls.wrQLenPdf::17                      0                       # What write queue length does an incoming req see
system.mem_ctrls.wrQLenPdf::18                      0                       # What write queue length does an incoming req see
system.mem_ctrls.wrQLenPdf::19                      0                       # What write queue length does an incoming req see
system.mem_ctrls.wrQLenPdf::20                      0                       # What write queue length does an incoming req see
system.mem_ctrls.wrQLenPdf::21                      0                       # What write queue length does an incoming req see
system.mem_ctrls.wrQLenPdf::22                      0                       # What write queue length does an incoming req see
system.mem_ctrls.wrQLenPdf::23                      0                       # What write queue length does an incoming req see
system.mem_ctrls.wrQLenPdf::24                      0                       # What write queue length does an incoming req see
system.mem_ctrls.wrQLenPdf::25                      0                       # What write queue length does an incoming req see
system.mem_ctrls.wrQLenPdf::26                      0                       # What write queue length does an incoming req see
system.mem_ctrls.wrQLenPdf::27                      0                       # What write queue length does an incoming req see
system.mem_ctrls.wrQLenPdf::28                      0                       # What write queue length does an incoming req see
system.mem_ctrls.wrQLenPdf::29                      0                       # What write queue length does an incoming req see
system.mem_ctrls.wrQLenPdf::30                      0                       # What write queue length does an incoming req see
system.mem_ctrls.wrQLenPdf::31                      0                       # What write queue length does an incoming req see
system.mem_ctrls.wrQLenPdf::32                      0                       # What write queue length does an incoming req see
system.mem_ctrls.wrQLenPdf::33                      0                       # What write queue length does an incoming req see
system.mem_ctrls.wrQLenPdf::34                      0                       # What write queue length does an incoming req see
system.mem_ctrls.wrQLenPdf::35                      0                       # What write queue length does an incoming req see
system.mem_ctrls.wrQLenPdf::36                      0                       # What write queue length does an incoming req see
system.mem_ctrls.wrQLenPdf::37                      0                       # What write queue length does an incoming req see
system.mem_ctrls.wrQLenPdf::38                      0                       # What write queue length does an incoming req see
system.mem_ctrls.wrQLenPdf::39                      0                       # What write queue length does an incoming req see
system.mem_ctrls.wrQLenPdf::40                      0                       # What write queue length does an incoming req see
system.mem_ctrls.wrQLenPdf::41                      0                       # What write queue length does an incoming req see
system.mem_ctrls.wrQLenPdf::42                      0                       # What write queue length does an incoming req see
system.mem_ctrls.wrQLenPdf::43                      0                       # What write queue length does an incoming req see
system.mem_ctrls.wrQLenPdf::44                      0                       # What write queue length does an incoming req see
system.mem_ctrls.wrQLenPdf::45                      0                       # What write queue length does an incoming req see
system.mem_ctrls.wrQLenPdf::46                      0                       # What write queue length does an incoming req see
system.mem_ctrls.wrQLenPdf::47                      0                       # What write queue length does an incoming req see
system.mem_ctrls.wrQLenPdf::48                      0                       # What write queue length does an incoming req see
system.mem_ctrls.wrQLenPdf::49                      0                       # What write queue length does an incoming req see
system.mem_ctrls.wrQLenPdf::50                      0                       # What write queue length does an incoming req see
system.mem_ctrls.wrQLenPdf::51                      0                       # What write queue length does an incoming req see
system.mem_ctrls.wrQLenPdf::52                      0                       # What write queue length does an incoming req see
system.mem_ctrls.wrQLenPdf::53                      0                       # What write queue length does an incoming req see
system.mem_ctrls.wrQLenPdf::54                      0                       # What write queue length does an incoming req see
system.mem_ctrls.wrQLenPdf::55                      0                       # What write queue length does an incoming req see
system.mem_ctrls.wrQLenPdf::56                      0                       # What write queue length does an incoming req see
system.mem_ctrls.wrQLenPdf::57                      0                       # What write queue length does an incoming req see
system.mem_ctrls.wrQLenPdf::58                      0                       # What write queue length does an incoming req see
system.mem_ctrls.wrQLenPdf::59                      0                       # What write queue length does an incoming req see
system.mem_ctrls.wrQLenPdf::60                      0                       # What write queue length does an incoming req see
system.mem_ctrls.wrQLenPdf::61                      0                       # What write queue length does an incoming req see
system.mem_ctrls.wrQLenPdf::62                      0                       # What write queue length does an incoming req see
system.mem_ctrls.wrQLenPdf::63                      0                       # What write queue length does an incoming req see
system.mem_ctrls.bytesPerActivate::samples         2175                       # Bytes accessed per row activation
system.mem_ctrls.bytesPerActivate::mean    150.951724                       # Bytes accessed per row activation
system.mem_ctrls.bytesPerActivate::gmean    95.227555                       # Bytes accessed per row activation
system.mem_ctrls.bytesPerActivate::stdev   218.415986                       # Bytes accessed per row activation
system.mem_ctrls.bytesPerActivate::0-127         1612     74.11%     74.11% # Bytes accessed per row activation
system.mem_ctrls.bytesPerActivate::128-255          250     11.49%     85.61% # Bytes accessed per row activation
system.mem_ctrls.bytesPerActivate::256-383           90      4.14%     89.75% # Bytes accessed per row activation
system.mem_ctrls.bytesPerActivate::384-511           60      2.76%     92.51% # Bytes accessed per row activation
system.mem_ctrls.bytesPerActivate::512-639           31      1.43%     93.93% # Bytes accessed per row activation
system.mem_ctrls.bytesPerActivate::640-767           20      0.92%     94.85% # Bytes accessed per row activation
system.mem_ctrls.bytesPerActivate::768-895           23      1.06%     95.91% # Bytes accessed per row activation
system.mem_ctrls.bytesPerActivate::896-1023           11      0.51%     96.41% # Bytes accessed per row activation
system.mem_ctrls.bytesPerActivate::1024-1151           78      3.59%    100.00% # Bytes accessed per row activation
system.mem_ctrls.bytesPerActivate::total         2175                       # Bytes accessed per row activation
system.mem_ctrls.totQLat                     60158250                       # Total ticks spent queuing
system.mem_ctrls.totMemAccLat               156345750                       # Total ticks spent from burst creation until serviced by the DRAM
system.mem_ctrls.totBusLat                   25650000                       # Total ticks spent in databus transfers
system.mem_ctrls.avgQLat                     11726.75                       # Average queueing delay per DRAM burst
system.mem_ctrls.avgBusLat                    5000.00                       # Average bus latency per DRAM burst
system.mem_ctrls.avgMemAccLat                30476.75                       # Average memory access latency per DRAM burst
system.mem_ctrls.avgRdBW                         3.43                       # Average DRAM read bandwidth in MiByte/s
system.mem_ctrls.avgWrBW                         0.00                       # Average achieved write bandwidth in MiByte/s
system.mem_ctrls.avgRdBWSys                      3.45                       # Average system read bandwidth in MiByte/s
system.mem_ctrls.avgWrBWSys                      0.02                       # Average system write bandwidth in MiByte/s
system.mem_ctrls.peakBW                      12800.00                       # Theoretical peak bandwidth in MiByte/s
system.mem_ctrls.busUtil                         0.03                       # Data bus utilization in percentage
system.mem_ctrls.busUtilRead                     0.03                       # Data bus utilization in percentage for reads
system.mem_ctrls.busUtilWrite                    0.00                       # Data bus utilization in percentage for writes
system.mem_ctrls.avgRdQLen                       1.03                       # Average read queue length when enqueuing
system.mem_ctrls.avgWrQLen                      11.56                       # Average write queue length when enqueuing
system.mem_ctrls.readRowHits                     2955                       # Number of row buffer hits during reads
system.mem_ctrls.writeRowHits                       0                       # Number of row buffer hits during writes
system.mem_ctrls.readRowHitRate                 57.60                       # Row buffer hit rate for reads
system.mem_ctrls.writeRowHitRate                 0.00                       # Row buffer hit rate for writes
system.mem_ctrls.avgGap                   18147949.11                       # Average gap between requests
system.mem_ctrls.pageHitRate                    57.45                       # Row buffer hit rate, read and write combined
system.mem_ctrls_0.actEnergy                  7922880                       # Energy for activate commands per rank (pJ)
system.mem_ctrls_0.preEnergy                  4323000                       # Energy for precharge commands per rank (pJ)
system.mem_ctrls_0.readEnergy                16684200                       # Energy for read commands per rank (pJ)
system.mem_ctrls_0.writeEnergy                      0                       # Energy for write commands per rank (pJ)
system.mem_ctrls_0.refreshEnergy           6250710960                       # Energy for refresh commands per rank (pJ)
system.mem_ctrls_0.actBackEnergy           4085672220                       # Energy for active background per rank (pJ)
system.mem_ctrls_0.preBackEnergy          53836704000                       # Energy for precharge background per rank (pJ)
system.mem_ctrls_0.totalEnergy            64202017260                       # Total energy per rank (pJ)
system.mem_ctrls_0.averagePower            670.860148                       # Core power per rank (mW)
system.mem_ctrls_0.memoryStateTime::IDLE  89550402250                       # Time in different power states
system.mem_ctrls_0.memoryStateTime::REF    3195660000                       # Time in different power states
system.mem_ctrls_0.memoryStateTime::PRE_PDN            0                       # Time in different power states
system.mem_ctrls_0.memoryStateTime::ACT    2954996500                       # Time in different power states
system.mem_ctrls_0.memoryStateTime::ACT_PDN            0                       # Time in different power states
system.mem_ctrls_1.actEnergy                  8520120                       # Energy for activate commands per rank (pJ)
system.mem_ctrls_1.preEnergy                  4648875                       # Energy for precharge commands per rank (pJ)
system.mem_ctrls_1.readEnergy                23329800                       # Energy for read commands per rank (pJ)
system.mem_ctrls_1.writeEnergy                      0                       # Energy for write commands per rank (pJ)
system.mem_ctrls_1.refreshEnergy           6250710960                       # Energy for refresh commands per rank (pJ)
system.mem_ctrls_1.actBackEnergy           4064640075                       # Energy for active background per rank (pJ)
system.mem_ctrls_1.preBackEnergy          53855153250                       # Energy for precharge background per rank (pJ)
system.mem_ctrls_1.totalEnergy            64207003080                       # Total energy per rank (pJ)
system.mem_ctrls_1.averagePower            670.912246                       # Core power per rank (mW)
system.mem_ctrls_1.memoryStateTime::IDLE  89581431250                       # Time in different power states
system.mem_ctrls_1.memoryStateTime::REF    3195660000                       # Time in different power states
system.mem_ctrls_1.memoryStateTime::PRE_PDN            0                       # Time in different power states
system.mem_ctrls_1.memoryStateTime::ACT    2923967500                       # Time in different power states
system.mem_ctrls_1.memoryStateTime::ACT_PDN            0                       # Time in different power states
system.cpu_voltage_domain.voltage                   1                       # Voltage in Volts
system.cpu_clk_domain.clock                       500                       # Clock period in ticks
system.cpu.apic_clk_domain.clock                 8000                       # Clock period in ticks
system.cpu.workload.num_syscalls                   34                       # Number of system calls
system.cpu.numCycles                        191416219                       # number of cpu cycles simulated
system.cpu.numWorkItemsStarted                      0                       # number of work items this cpu started
system.cpu.numWorkItemsCompleted                    0                       # number of work items this cpu completed
system.cpu.committedInsts                    50000001                       # Number of instructions committed
system.cpu.committedOps                      65014771                       # Number of ops (including micro ops) committed
system.cpu.num_int_alu_accesses              62933723                       # Number of integer alu accesses
system.cpu.num_fp_alu_accesses                2948954                       # Number of float alu accesses
system.cpu.num_func_calls                      164791                       # number of times a function call or return occured
system.cpu.num_conditional_control_insts      2606578                       # number of instructions that are conditional controls
system.cpu.num_int_insts                     62933723                       # number of integer instructions
system.cpu.num_fp_insts                       2948954                       # number of float instructions
system.cpu.num_int_register_reads           147293489                       # number of times the integer registers were read
system.cpu.num_int_register_writes           57136580                       # number of times the integer registers were written
system.cpu.num_fp_register_reads              2505840                       # number of times the floating registers were read
system.cpu.num_fp_register_writes             2527243                       # number of times the floating registers were written
system.cpu.num_cc_register_reads             19216340                       # number of times the CC registers were read
system.cpu.num_cc_register_writes            26132626                       # number of times the CC registers were written
system.cpu.num_mem_refs                      25502522                       # number of memory refs
system.cpu.num_load_insts                    21863458                       # Number of load instructions
system.cpu.num_store_insts                    3639064                       # Number of store instructions
system.cpu.num_idle_cycles                          0                       # Number of idle cycles
system.cpu.num_busy_cycles                  191416219                       # Number of busy cycles
system.cpu.not_idle_fraction                        1                       # Percentage of non-idle cycles
system.cpu.idle_fraction                            0                       # Percentage of idle cycles
system.cpu.Branches                           2859400                       # Number of branches fetched
system.cpu.op_class::No_OpClass                195787      0.30%      0.30% # Class of executed instruction
system.cpu.op_class::IntAlu                  36733092     56.50%     56.80% # Class of executed instruction
system.cpu.op_class::IntMult                    70748      0.11%     56.91% # Class of executed instruction
system.cpu.op_class::IntDiv                    629626      0.97%     57.88% # Class of executed instruction
system.cpu.op_class::FloatAdd                 1882996      2.90%     60.77% # Class of executed instruction
system.cpu.op_class::FloatCmp                       0      0.00%     60.77% # Class of executed instruction
system.cpu.op_class::FloatCvt                       0      0.00%     60.77% # Class of executed instruction
system.cpu.op_class::FloatMult                      0      0.00%     60.77% # Class of executed instruction
system.cpu.op_class::FloatDiv                       0      0.00%     60.77% # Class of executed instruction
system.cpu.op_class::FloatSqrt                      0      0.00%     60.77% # Class of executed instruction
system.cpu.op_class::SimdAdd                        0      0.00%     60.77% # Class of executed instruction
system.cpu.op_class::SimdAddAcc                     0      0.00%     60.77% # Class of executed instruction
system.cpu.op_class::SimdAlu                        0      0.00%     60.77% # Class of executed instruction
system.cpu.op_class::SimdCmp                        0      0.00%     60.77% # Class of executed instruction
system.cpu.op_class::SimdCvt                        0      0.00%     60.77% # Class of executed instruction
system.cpu.op_class::SimdMisc                       0      0.00%     60.77% # Class of executed instruction
system.cpu.op_class::SimdMult                       0      0.00%     60.77% # Class of executed instruction
system.cpu.op_class::SimdMultAcc                    0      0.00%     60.77% # Class of executed instruction
system.cpu.op_class::SimdShift                      0      0.00%     60.77% # Class of executed instruction
system.cpu.op_class::SimdShiftAcc                   0      0.00%     60.77% # Class of executed instruction
system.cpu.op_class::SimdSqrt                       0      0.00%     60.77% # Class of executed instruction
system.cpu.op_class::SimdFloatAdd                   0      0.00%     60.77% # Class of executed instruction
system.cpu.op_class::SimdFloatAlu                   0      0.00%     60.77% # Class of executed instruction
system.cpu.op_class::SimdFloatCmp                   0      0.00%     60.77% # Class of executed instruction
system.cpu.op_class::SimdFloatCvt                   0      0.00%     60.77% # Class of executed instruction
system.cpu.op_class::SimdFloatDiv                   0      0.00%     60.77% # Class of executed instruction
system.cpu.op_class::SimdFloatMisc                  0      0.00%     60.77% # Class of executed instruction
system.cpu.op_class::SimdFloatMult                  0      0.00%     60.77% # Class of executed instruction
system.cpu.op_class::SimdFloatMultAcc               0      0.00%     60.77% # Class of executed instruction
system.cpu.op_class::SimdFloatSqrt                  0      0.00%     60.77% # Class of executed instruction
system.cpu.op_class::MemRead                 21863458     33.63%     94.40% # Class of executed instruction
system.cpu.op_class::MemWrite                 3639064      5.60%    100.00% # Class of executed instruction
system.cpu.op_class::IprAccess                      0      0.00%    100.00% # Class of executed instruction
system.cpu.op_class::InstPrefetch                   0      0.00%    100.00% # Class of executed instruction
system.cpu.op_class::total                   65014771                       # Class of executed instruction
system.cpu.dcache.tags.replacements             22418                       # number of replacements
system.cpu.dcache.tags.tagsinuse          1998.359185                       # Cycle average of tags in use
system.cpu.dcache.tags.total_refs            25478603                       # Total number of references to valid blocks.
system.cpu.dcache.tags.sampled_refs             24466                       # Sample count of references to valid blocks.
system.cpu.dcache.tags.avg_refs           1041.388171                       # Average number of references to valid blocks.
system.cpu.dcache.tags.warmup_cycle       11236821500                       # Cycle when the warmup percentage was hit.
system.cpu.dcache.tags.occ_blocks::cpu.data  1998.359185                       # Average occupied blocks per requestor
system.cpu.dcache.tags.occ_percent::cpu.data     0.975761                       # Average percentage of cache occupancy
system.cpu.dcache.tags.occ_percent::total     0.975761                       # Average percentage of cache occupancy
system.cpu.dcache.tags.occ_task_id_blocks::1024         2048                       # Occupied blocks per task id
system.cpu.dcache.tags.age_task_id_blocks_1024::0            3                       # Occupied blocks per task id
system.cpu.dcache.tags.age_task_id_blocks_1024::1            7                       # Occupied blocks per task id
system.cpu.dcache.tags.age_task_id_blocks_1024::2           16                       # Occupied blocks per task id
system.cpu.dcache.tags.age_task_id_blocks_1024::3         1550                       # Occupied blocks per task id
system.cpu.dcache.tags.age_task_id_blocks_1024::4          472                       # Occupied blocks per task id
system.cpu.dcache.tags.occ_task_id_percent::1024            1                       # Percentage of cache occupancy per task id
system.cpu.dcache.tags.tag_accesses          51030604                       # Number of tag accesses
system.cpu.dcache.tags.data_accesses         51030604                       # Number of data accesses
system.cpu.dcache.ReadReq_hits::cpu.data     21855021                       # number of ReadReq hits
system.cpu.dcache.ReadReq_hits::total        21855021                       # number of ReadReq hits
system.cpu.dcache.WriteReq_hits::cpu.data      3621836                       # number of WriteReq hits
system.cpu.dcache.WriteReq_hits::total        3621836                       # number of WriteReq hits
system.cpu.dcache.SoftPFReq_hits::cpu.data         1746                       # number of SoftPFReq hits
system.cpu.dcache.SoftPFReq_hits::total          1746                       # number of SoftPFReq hits
system.cpu.dcache.demand_hits::cpu.data      25476857                       # number of demand (read+write) hits
system.cpu.dcache.demand_hits::total         25476857                       # number of demand (read+write) hits
system.cpu.dcache.overall_hits::cpu.data     25478603                       # number of overall hits
system.cpu.dcache.overall_hits::total        25478603                       # number of overall hits
system.cpu.dcache.ReadReq_misses::cpu.data         5990                       # number of ReadReq misses
system.cpu.dcache.ReadReq_misses::total          5990                       # number of ReadReq misses
system.cpu.dcache.WriteReq_misses::cpu.data        17276                       # number of WriteReq misses
system.cpu.dcache.WriteReq_misses::total        17276                       # number of WriteReq misses
system.cpu.dcache.SoftPFReq_misses::cpu.data         1200                       # number of SoftPFReq misses
system.cpu.dcache.SoftPFReq_misses::total         1200                       # number of SoftPFReq misses
system.cpu.dcache.demand_misses::cpu.data        23266                       # number of demand (read+write) misses
system.cpu.dcache.demand_misses::total          23266                       # number of demand (read+write) misses
system.cpu.dcache.overall_misses::cpu.data        24466                       # number of overall misses
system.cpu.dcache.overall_misses::total         24466                       # number of overall misses
system.cpu.dcache.ReadReq_miss_latency::cpu.data    123029500                       # number of ReadReq miss cycles
system.cpu.dcache.ReadReq_miss_latency::total    123029500                       # number of ReadReq miss cycles
system.cpu.dcache.WriteReq_miss_latency::cpu.data    425854000                       # number of WriteReq miss cycles
system.cpu.dcache.WriteReq_miss_latency::total    425854000                       # number of WriteReq miss cycles
system.cpu.dcache.demand_miss_latency::cpu.data    548883500                       # number of demand (read+write) miss cycles
system.cpu.dcache.demand_miss_latency::total    548883500                       # number of demand (read+write) miss cycles
system.cpu.dcache.overall_miss_latency::cpu.data    548883500                       # number of overall miss cycles
system.cpu.dcache.overall_miss_latency::total    548883500                       # number of overall miss cycles
system.cpu.dcache.ReadReq_accesses::cpu.data     21861011                       # number of ReadReq accesses(hits+misses)
system.cpu.dcache.ReadReq_accesses::total     21861011                       # number of ReadReq accesses(hits+misses)
system.cpu.dcache.WriteReq_accesses::cpu.data      3639112                       # number of WriteReq accesses(hits+misses)
system.cpu.dcache.WriteReq_accesses::total      3639112                       # number of WriteReq accesses(hits+misses)
system.cpu.dcache.SoftPFReq_accesses::cpu.data         2946                       # number of SoftPFReq accesses(hits+misses)
system.cpu.dcache.SoftPFReq_accesses::total         2946                       # number of SoftPFReq accesses(hits+misses)
system.cpu.dcache.demand_accesses::cpu.data     25500123                       # number of demand (read+write) accesses
system.cpu.dcache.demand_accesses::total     25500123                       # number of demand (read+write) accesses
system.cpu.dcache.overall_accesses::cpu.data     25503069                       # number of overall (read+write) accesses
system.cpu.dcache.overall_accesses::total     25503069                       # number of overall (read+write) accesses
system.cpu.dcache.ReadReq_miss_rate::cpu.data     0.000274                       # miss rate for ReadReq accesses
system.cpu.dcache.ReadReq_miss_rate::total     0.000274                       # miss rate for ReadReq accesses
system.cpu.dcache.WriteReq_miss_rate::cpu.data     0.004747                       # miss rate for WriteReq accesses
system.cpu.dcache.WriteReq_miss_rate::total     0.004747                       # miss rate for WriteReq accesses
system.cpu.dcache.SoftPFReq_miss_rate::cpu.data     0.407332                       # miss rate for SoftPFReq accesses
system.cpu.dcache.SoftPFReq_miss_rate::total     0.407332                       # miss rate for SoftPFReq accesses
system.cpu.dcache.demand_miss_rate::cpu.data     0.000912                       # miss rate for demand accesses
system.cpu.dcache.demand_miss_rate::total     0.000912                       # miss rate for demand accesses
system.cpu.dcache.overall_miss_rate::cpu.data     0.000959                       # miss rate for overall accesses
system.cpu.dcache.overall_miss_rate::total     0.000959                       # miss rate for overall accesses
system.cpu.dcache.ReadReq_avg_miss_latency::cpu.data 20539.148581                       # average ReadReq miss latency
system.cpu.dcache.ReadReq_avg_miss_latency::total 20539.148581                       # average ReadReq miss latency
system.cpu.dcache.WriteReq_avg_miss_latency::cpu.data 24650.034730                       # average WriteReq miss latency
system.cpu.dcache.WriteReq_avg_miss_latency::total 24650.034730                       # average WriteReq miss latency
system.cpu.dcache.demand_avg_miss_latency::cpu.data 23591.657354                       # average overall miss latency
system.cpu.dcache.demand_avg_miss_latency::total 23591.657354                       # average overall miss latency
system.cpu.dcache.overall_avg_miss_latency::cpu.data 22434.541813                       # average overall miss latency
system.cpu.dcache.overall_avg_miss_latency::total 22434.541813                       # average overall miss latency
system.cpu.dcache.blocked_cycles::no_mshrs         1929                       # number of cycles access was blocked
system.cpu.dcache.blocked_cycles::no_targets            0                       # number of cycles access was blocked
system.cpu.dcache.blocked::no_mshrs                35                       # number of cycles access was blocked
system.cpu.dcache.blocked::no_targets               0                       # number of cycles access was blocked
system.cpu.dcache.avg_blocked_cycles::no_mshrs    55.114286                       # average number of cycles each access was blocked
system.cpu.dcache.avg_blocked_cycles::no_targets          nan                       # average number of cycles each access was blocked
system.cpu.dcache.fast_writes                       0                       # number of fast writes performed
system.cpu.dcache.cache_copies                      0                       # number of cache copies performed
system.cpu.dcache.writebacks::writebacks        21523                       # number of writebacks
system.cpu.dcache.writebacks::total             21523                       # number of writebacks
system.cpu.dcache.ReadReq_mshr_misses::cpu.data         5990                       # number of ReadReq MSHR misses
system.cpu.dcache.ReadReq_mshr_misses::total         5990                       # number of ReadReq MSHR misses
system.cpu.dcache.WriteReq_mshr_misses::cpu.data        17276                       # number of WriteReq MSHR misses
system.cpu.dcache.WriteReq_mshr_misses::total        17276                       # number of WriteReq MSHR misses
system.cpu.dcache.SoftPFReq_mshr_misses::cpu.data         1200                       # number of SoftPFReq MSHR misses
system.cpu.dcache.SoftPFReq_mshr_misses::total         1200                       # number of SoftPFReq MSHR misses
system.cpu.dcache.demand_mshr_misses::cpu.data        23266                       # number of demand (read+write) MSHR misses
system.cpu.dcache.demand_mshr_misses::total        23266                       # number of demand (read+write) MSHR misses
system.cpu.dcache.overall_mshr_misses::cpu.data        24466                       # number of overall MSHR misses
system.cpu.dcache.overall_mshr_misses::total        24466                       # number of overall MSHR misses
system.cpu.dcache.ReadReq_mshr_miss_latency::cpu.data    117039500                       # number of ReadReq MSHR miss cycles
system.cpu.dcache.ReadReq_mshr_miss_latency::total    117039500                       # number of ReadReq MSHR miss cycles
system.cpu.dcache.WriteReq_mshr_miss_latency::cpu.data    408578000                       # number of WriteReq MSHR miss cycles
system.cpu.dcache.WriteReq_mshr_miss_latency::total    408578000                       # number of WriteReq MSHR miss cycles
system.cpu.dcache.SoftPFReq_mshr_miss_latency::cpu.data     36984500                       # number of SoftPFReq MSHR miss cycles
system.cpu.dcache.SoftPFReq_mshr_miss_latency::total     36984500                       # number of SoftPFReq MSHR miss cycles
system.cpu.dcache.demand_mshr_miss_latency::cpu.data    525617500                       # number of demand (read+write) MSHR miss cycles
system.cpu.dcache.demand_mshr_miss_latency::total    525617500                       # number of demand (read+write) MSHR miss cycles
system.cpu.dcache.overall_mshr_miss_latency::cpu.data    562602000                       # number of overall MSHR miss cycles
system.cpu.dcache.overall_mshr_miss_latency::total    562602000                       # number of overall MSHR miss cycles
system.cpu.dcache.ReadReq_mshr_miss_rate::cpu.data     0.000274                       # mshr miss rate for ReadReq accesses
system.cpu.dcache.ReadReq_mshr_miss_rate::total     0.000274                       # mshr miss rate for ReadReq accesses
system.cpu.dcache.WriteReq_mshr_miss_rate::cpu.data     0.004747                       # mshr miss rate for WriteReq accesses
system.cpu.dcache.WriteReq_mshr_miss_rate::total     0.004747                       # mshr miss rate for WriteReq accesses
system.cpu.dcache.SoftPFReq_mshr_miss_rate::cpu.data     0.407332                       # mshr miss rate for SoftPFReq accesses
system.cpu.dcache.SoftPFReq_mshr_miss_rate::total     0.407332                       # mshr miss rate for SoftPFReq accesses
system.cpu.dcache.demand_mshr_miss_rate::cpu.data     0.000912                       # mshr miss rate for demand accesses
system.cpu.dcache.demand_mshr_miss_rate::total     0.000912                       # mshr miss rate for demand accesses
system.cpu.dcache.overall_mshr_miss_rate::cpu.data     0.000959                       # mshr miss rate for overall accesses
system.cpu.dcache.overall_mshr_miss_rate::total     0.000959                       # mshr miss rate for overall accesses
system.cpu.dcache.ReadReq_avg_mshr_miss_latency::cpu.data 19539.148581                       # average ReadReq mshr miss latency
system.cpu.dcache.ReadReq_avg_mshr_miss_latency::total 19539.148581                       # average ReadReq mshr miss latency
system.cpu.dcache.WriteReq_avg_mshr_miss_latency::cpu.data 23650.034730                       # average WriteReq mshr miss latency
system.cpu.dcache.WriteReq_avg_mshr_miss_latency::total 23650.034730                       # average WriteReq mshr miss latency
system.cpu.dcache.SoftPFReq_avg_mshr_miss_latency::cpu.data 30820.416667                       # average SoftPFReq mshr miss latency
system.cpu.dcache.SoftPFReq_avg_mshr_miss_latency::total 30820.416667                       # average SoftPFReq mshr miss latency
system.cpu.dcache.demand_avg_mshr_miss_latency::cpu.data 22591.657354                       # average overall mshr miss latency
system.cpu.dcache.demand_avg_mshr_miss_latency::total 22591.657354                       # average overall mshr miss latency
system.cpu.dcache.overall_avg_mshr_miss_latency::cpu.data 22995.258726                       # average overall mshr miss latency
system.cpu.dcache.overall_avg_mshr_miss_latency::total 22995.258726                       # average overall mshr miss latency
system.cpu.dcache.no_allocate_misses                0                       # Number of misses that were no-allocate
system.cpu.dtb_walker_cache.tags.replacements            0                       # number of replacements
system.cpu.dtb_walker_cache.tags.tagsinuse            0                       # Cycle average of tags in use
system.cpu.dtb_walker_cache.tags.total_refs            0                       # Total number of references to valid blocks.
system.cpu.dtb_walker_cache.tags.sampled_refs            0                       # Sample count of references to valid blocks.
system.cpu.dtb_walker_cache.tags.avg_refs          nan                       # Average number of references to valid blocks.
system.cpu.dtb_walker_cache.tags.warmup_cycle            0                       # Cycle when the warmup percentage was hit.
system.cpu.dtb_walker_cache.tags.tag_accesses            0                       # Number of tag accesses
system.cpu.dtb_walker_cache.tags.data_accesses            0                       # Number of data accesses
system.cpu.dtb_walker_cache.blocked_cycles::no_mshrs            0                       # number of cycles access was blocked
system.cpu.dtb_walker_cache.blocked_cycles::no_targets            0                       # number of cycles access was blocked
system.cpu.dtb_walker_cache.blocked::no_mshrs            0                       # number of cycles access was blocked
system.cpu.dtb_walker_cache.blocked::no_targets            0                       # number of cycles access was blocked
system.cpu.dtb_walker_cache.avg_blocked_cycles::no_mshrs          nan                       # average number of cycles each access was blocked
system.cpu.dtb_walker_cache.avg_blocked_cycles::no_targets          nan                       # average number of cycles each access was blocked
system.cpu.dtb_walker_cache.fast_writes             0                       # number of fast writes performed
system.cpu.dtb_walker_cache.cache_copies            0                       # number of cache copies performed
system.cpu.dtb_walker_cache.no_allocate_misses            0                       # Number of misses that were no-allocate
system.cpu.icache.tags.replacements               815                       # number of replacements
system.cpu.icache.tags.tagsinuse           902.397508                       # Cycle average of tags in use
system.cpu.icache.tags.total_refs            69566135                       # Total number of references to valid blocks.
system.cpu.icache.tags.sampled_refs              1721                       # Sample count of references to valid blocks.
system.cpu.icache.tags.avg_refs          40421.926206                       # Average number of references to valid blocks.
system.cpu.icache.tags.warmup_cycle                 0                       # Cycle when the warmup percentage was hit.
system.cpu.icache.tags.occ_blocks::cpu.inst   902.397508                       # Average occupied blocks per requestor
system.cpu.icache.tags.occ_percent::cpu.inst     0.881248                       # Average percentage of cache occupancy
system.cpu.icache.tags.occ_percent::total     0.881248                       # Average percentage of cache occupancy
system.cpu.icache.tags.occ_task_id_blocks::1024          906                       # Occupied blocks per task id
system.cpu.icache.tags.age_task_id_blocks_1024::3           11                       # Occupied blocks per task id
system.cpu.icache.tags.age_task_id_blocks_1024::4          895                       # Occupied blocks per task id
system.cpu.icache.tags.occ_task_id_percent::1024     0.884766                       # Percentage of cache occupancy per task id
system.cpu.icache.tags.tag_accesses         139137433                       # Number of tag accesses
system.cpu.icache.tags.data_accesses        139137433                       # Number of data accesses
system.cpu.icache.ReadReq_hits::cpu.inst     69566135                       # number of ReadReq hits
system.cpu.icache.ReadReq_hits::total        69566135                       # number of ReadReq hits
system.cpu.icache.demand_hits::cpu.inst      69566135                       # number of demand (read+write) hits
system.cpu.icache.demand_hits::total         69566135                       # number of demand (read+write) hits
system.cpu.icache.overall_hits::cpu.inst     69566135                       # number of overall hits
system.cpu.icache.overall_hits::total        69566135                       # number of overall hits
system.cpu.icache.ReadReq_misses::cpu.inst         1721                       # number of ReadReq misses
system.cpu.icache.ReadReq_misses::total          1721                       # number of ReadReq misses
system.cpu.icache.demand_misses::cpu.inst         1721                       # number of demand (read+write) misses
system.cpu.icache.demand_misses::total           1721                       # number of demand (read+write) misses
system.cpu.icache.overall_misses::cpu.inst         1721                       # number of overall misses
system.cpu.icache.overall_misses::total          1721                       # number of overall misses
system.cpu.icache.ReadReq_miss_latency::cpu.inst    112657000                       # number of ReadReq miss cycles
system.cpu.icache.ReadReq_miss_latency::total    112657000                       # number of ReadReq miss cycles
system.cpu.icache.demand_miss_latency::cpu.inst    112657000                       # number of demand (read+write) miss cycles
system.cpu.icache.demand_miss_latency::total    112657000                       # number of demand (read+write) miss cycles
system.cpu.icache.overall_miss_latency::cpu.inst    112657000                       # number of overall miss cycles
system.cpu.icache.overall_miss_latency::total    112657000                       # number of overall miss cycles
system.cpu.icache.ReadReq_accesses::cpu.inst     69567856                       # number of ReadReq accesses(hits+misses)
system.cpu.icache.ReadReq_accesses::total     69567856                       # number of ReadReq accesses(hits+misses)
system.cpu.icache.demand_accesses::cpu.inst     69567856                       # number of demand (read+write) accesses
system.cpu.icache.demand_accesses::total     69567856                       # number of demand (read+write) accesses
system.cpu.icache.overall_accesses::cpu.inst     69567856                       # number of overall (read+write) accesses
system.cpu.icache.overall_accesses::total     69567856                       # number of overall (read+write) accesses
system.cpu.icache.ReadReq_miss_rate::cpu.inst     0.000025                       # miss rate for ReadReq accesses
system.cpu.icache.ReadReq_miss_rate::total     0.000025                       # miss rate for ReadReq accesses
system.cpu.icache.demand_miss_rate::cpu.inst     0.000025                       # miss rate for demand accesses
system.cpu.icache.demand_miss_rate::total     0.000025                       # miss rate for demand accesses
system.cpu.icache.overall_miss_rate::cpu.inst     0.000025                       # miss rate for overall accesses
system.cpu.icache.overall_miss_rate::total     0.000025                       # miss rate for overall accesses
system.cpu.icache.ReadReq_avg_miss_latency::cpu.inst 65460.197560                       # average ReadReq miss latency
system.cpu.icache.ReadReq_avg_miss_latency::total 65460.197560                       # average ReadReq miss latency
system.cpu.icache.demand_avg_miss_latency::cpu.inst 65460.197560                       # average overall miss latency
system.cpu.icache.demand_avg_miss_latency::total 65460.197560                       # average overall miss latency
system.cpu.icache.overall_avg_miss_latency::cpu.inst 65460.197560                       # average overall miss latency
system.cpu.icache.overall_avg_miss_latency::total 65460.197560                       # average overall miss latency
system.cpu.icache.blocked_cycles::no_mshrs            0                       # number of cycles access was blocked
system.cpu.icache.blocked_cycles::no_targets            0                       # number of cycles access was blocked
system.cpu.icache.blocked::no_mshrs                 0                       # number of cycles access was blocked
system.cpu.icache.blocked::no_targets               0                       # number of cycles access was blocked
system.cpu.icache.avg_blocked_cycles::no_mshrs          nan                       # average number of cycles each access was blocked
system.cpu.icache.avg_blocked_cycles::no_targets          nan                       # average number of cycles each access was blocked
system.cpu.icache.fast_writes                       0                       # number of fast writes performed
system.cpu.icache.cache_copies                      0                       # number of cache copies performed
system.cpu.icache.writebacks::writebacks          815                       # number of writebacks
system.cpu.icache.writebacks::total               815                       # number of writebacks
system.cpu.icache.ReadReq_mshr_misses::cpu.inst         1721                       # number of ReadReq MSHR misses
system.cpu.icache.ReadReq_mshr_misses::total         1721                       # number of ReadReq MSHR misses
system.cpu.icache.demand_mshr_misses::cpu.inst         1721                       # number of demand (read+write) MSHR misses
system.cpu.icache.demand_mshr_misses::total         1721                       # number of demand (read+write) MSHR misses
system.cpu.icache.overall_mshr_misses::cpu.inst         1721                       # number of overall MSHR misses
system.cpu.icache.overall_mshr_misses::total         1721                       # number of overall MSHR misses
system.cpu.icache.ReadReq_mshr_miss_latency::cpu.inst    110936000                       # number of ReadReq MSHR miss cycles
system.cpu.icache.ReadReq_mshr_miss_latency::total    110936000                       # number of ReadReq MSHR miss cycles
system.cpu.icache.demand_mshr_miss_latency::cpu.inst    110936000                       # number of demand (read+write) MSHR miss cycles
system.cpu.icache.demand_mshr_miss_latency::total    110936000                       # number of demand (read+write) MSHR miss cycles
system.cpu.icache.overall_mshr_miss_latency::cpu.inst    110936000                       # number of overall MSHR miss cycles
system.cpu.icache.overall_mshr_miss_latency::total    110936000                       # number of overall MSHR miss cycles
system.cpu.icache.ReadReq_mshr_miss_rate::cpu.inst     0.000025                       # mshr miss rate for ReadReq accesses
system.cpu.icache.ReadReq_mshr_miss_rate::total     0.000025                       # mshr miss rate for ReadReq accesses
system.cpu.icache.demand_mshr_miss_rate::cpu.inst     0.000025                       # mshr miss rate for demand accesses
system.cpu.icache.demand_mshr_miss_rate::total     0.000025                       # mshr miss rate for demand accesses
system.cpu.icache.overall_mshr_miss_rate::cpu.inst     0.000025                       # mshr miss rate for overall accesses
system.cpu.icache.overall_mshr_miss_rate::total     0.000025                       # mshr miss rate for overall accesses
system.cpu.icache.ReadReq_avg_mshr_miss_latency::cpu.inst 64460.197560                       # average ReadReq mshr miss latency
system.cpu.icache.ReadReq_avg_mshr_miss_latency::total 64460.197560                       # average ReadReq mshr miss latency
system.cpu.icache.demand_avg_mshr_miss_latency::cpu.inst 64460.197560                       # average overall mshr miss latency
system.cpu.icache.demand_avg_mshr_miss_latency::total 64460.197560                       # average overall mshr miss latency
system.cpu.icache.overall_avg_mshr_miss_latency::cpu.inst 64460.197560                       # average overall mshr miss latency
system.cpu.icache.overall_avg_mshr_miss_latency::total 64460.197560                       # average overall mshr miss latency
system.cpu.icache.no_allocate_misses                0                       # Number of misses that were no-allocate
system.cpu.itb_walker_cache.tags.replacements            0                       # number of replacements
system.cpu.itb_walker_cache.tags.tagsinuse            0                       # Cycle average of tags in use
system.cpu.itb_walker_cache.tags.total_refs            0                       # Total number of references to valid blocks.
system.cpu.itb_walker_cache.tags.sampled_refs            0                       # Sample count of references to valid blocks.
system.cpu.itb_walker_cache.tags.avg_refs          nan                       # Average number of references to valid blocks.
system.cpu.itb_walker_cache.tags.warmup_cycle            0                       # Cycle when the warmup percentage was hit.
system.cpu.itb_walker_cache.tags.tag_accesses            0                       # Number of tag accesses
system.cpu.itb_walker_cache.tags.data_accesses            0                       # Number of data accesses
system.cpu.itb_walker_cache.blocked_cycles::no_mshrs            0                       # number of cycles access was blocked
system.cpu.itb_walker_cache.blocked_cycles::no_targets            0                       # number of cycles access was blocked
system.cpu.itb_walker_cache.blocked::no_mshrs            0                       # number of cycles access was blocked
system.cpu.itb_walker_cache.blocked::no_targets            0                       # number of cycles access was blocked
system.cpu.itb_walker_cache.avg_blocked_cycles::no_mshrs          nan                       # average number of cycles each access was blocked
system.cpu.itb_walker_cache.avg_blocked_cycles::no_targets          nan                       # average number of cycles each access was blocked
system.cpu.itb_walker_cache.fast_writes             0                       # number of fast writes performed
system.cpu.itb_walker_cache.cache_copies            0                       # number of cache copies performed
system.cpu.itb_walker_cache.no_allocate_misses            0                       # Number of misses that were no-allocate
system.l2.tags.replacements                       421                       # number of replacements
system.l2.tags.tagsinuse                  3158.358541                       # Cycle average of tags in use
system.l2.tags.total_refs                       13945                       # Total number of references to valid blocks.
system.l2.tags.sampled_refs                      3389                       # Sample count of references to valid blocks.
system.l2.tags.avg_refs                      4.114783                       # Average number of references to valid blocks.
system.l2.tags.warmup_cycle                         0                       # Cycle when the warmup percentage was hit.
system.l2.tags.occ_blocks::writebacks     1429.830804                       # Average occupied blocks per requestor
system.l2.tags.occ_blocks::cpu.inst       1101.372712                       # Average occupied blocks per requestor
system.l2.tags.occ_blocks::cpu.data        627.155025                       # Average occupied blocks per requestor
system.l2.tags.occ_percent::writebacks       0.087270                       # Average percentage of cache occupancy
system.l2.tags.occ_percent::cpu.inst         0.067222                       # Average percentage of cache occupancy
system.l2.tags.occ_percent::cpu.data         0.038279                       # Average percentage of cache occupancy
system.l2.tags.occ_percent::total            0.192771                       # Average percentage of cache occupancy
system.l2.tags.occ_task_id_blocks::1024          2968                       # Occupied blocks per task id
system.l2.tags.age_task_id_blocks_1024::0            3                       # Occupied blocks per task id
system.l2.tags.age_task_id_blocks_1024::1            7                       # Occupied blocks per task id
system.l2.tags.age_task_id_blocks_1024::2            7                       # Occupied blocks per task id
system.l2.tags.age_task_id_blocks_1024::3          601                       # Occupied blocks per task id
system.l2.tags.age_task_id_blocks_1024::4         2350                       # Occupied blocks per task id
system.l2.tags.occ_task_id_percent::1024     0.181152                       # Percentage of cache occupancy per task id
system.l2.tags.tag_accesses                     70084                       # Number of tag accesses
system.l2.tags.data_accesses                    70084                       # Number of data accesses
system.l2.WritebackDirty_hits::writebacks        21523                       # number of WritebackDirty hits
system.l2.WritebackDirty_hits::total            21523                       # number of WritebackDirty hits
system.l2.WritebackClean_hits::writebacks          814                       # number of WritebackClean hits
system.l2.WritebackClean_hits::total              814                       # number of WritebackClean hits
system.l2.ReadExReq_hits::cpu.data              14474                       # number of ReadExReq hits
system.l2.ReadExReq_hits::total                 14474                       # number of ReadExReq hits
system.l2.ReadCleanReq_hits::cpu.inst             354                       # number of ReadCleanReq hits
system.l2.ReadCleanReq_hits::total                354                       # number of ReadCleanReq hits
system.l2.ReadSharedReq_hits::cpu.data           6199                       # number of ReadSharedReq hits
system.l2.ReadSharedReq_hits::total              6199                       # number of ReadSharedReq hits
system.l2.demand_hits::cpu.inst                   354                       # number of demand (read+write) hits
system.l2.demand_hits::cpu.data                 20673                       # number of demand (read+write) hits
system.l2.demand_hits::total                    21027                       # number of demand (read+write) hits
system.l2.overall_hits::cpu.inst                  354                       # number of overall hits
system.l2.overall_hits::cpu.data                20673                       # number of overall hits
system.l2.overall_hits::total                   21027                       # number of overall hits
system.l2.ReadExReq_misses::cpu.data             2802                       # number of ReadExReq misses
system.l2.ReadExReq_misses::total                2802                       # number of ReadExReq misses
system.l2.ReadCleanReq_misses::cpu.inst          1367                       # number of ReadCleanReq misses
system.l2.ReadCleanReq_misses::total             1367                       # number of ReadCleanReq misses
system.l2.ReadSharedReq_misses::cpu.data          991                       # number of ReadSharedReq misses
system.l2.ReadSharedReq_misses::total             991                       # number of ReadSharedReq misses
system.l2.demand_misses::cpu.inst                1367                       # number of demand (read+write) misses
system.l2.demand_misses::cpu.data                3793                       # number of demand (read+write) misses
system.l2.demand_misses::total                   5160                       # number of demand (read+write) misses
system.l2.overall_misses::cpu.inst               1367                       # number of overall misses
system.l2.overall_misses::cpu.data               3793                       # number of overall misses
system.l2.overall_misses::total                  5160                       # number of overall misses
system.l2.ReadExReq_miss_latency::cpu.data    230662000                       # number of ReadExReq miss cycles
system.l2.ReadExReq_miss_latency::total     230662000                       # number of ReadExReq miss cycles
system.l2.ReadCleanReq_miss_latency::cpu.inst    104628500                       # number of ReadCleanReq miss cycles
system.l2.ReadCleanReq_miss_latency::total    104628500                       # number of ReadCleanReq miss cycles
system.l2.ReadSharedReq_miss_latency::cpu.data     78149000                       # number of ReadSharedReq miss cycles
system.l2.ReadSharedReq_miss_latency::total     78149000                       # number of ReadSharedReq miss cycles
system.l2.demand_miss_latency::cpu.inst     104628500                       # number of demand (read+write) miss cycles
system.l2.demand_miss_latency::cpu.data     308811000                       # number of demand (read+write) miss cycles
system.l2.demand_miss_latency::total        413439500                       # number of demand (read+write) miss cycles
system.l2.overall_miss_latency::cpu.inst    104628500                       # number of overall miss cycles
system.l2.overall_miss_latency::cpu.data    308811000                       # number of overall miss cycles
system.l2.overall_miss_latency::total       413439500                       # number of overall miss cycles
system.l2.WritebackDirty_accesses::writebacks        21523                       # number of WritebackDirty accesses(hits+misses)
system.l2.WritebackDirty_accesses::total        21523                       # number of WritebackDirty accesses(hits+misses)
system.l2.WritebackClean_accesses::writebacks          814                       # number of WritebackClean accesses(hits+misses)
system.l2.WritebackClean_accesses::total          814                       # number of WritebackClean accesses(hits+misses)
system.l2.ReadExReq_accesses::cpu.data          17276                       # number of ReadExReq accesses(hits+misses)
system.l2.ReadExReq_accesses::total             17276                       # number of ReadExReq accesses(hits+misses)
system.l2.ReadCleanReq_accesses::cpu.inst         1721                       # number of ReadCleanReq accesses(hits+misses)
system.l2.ReadCleanReq_accesses::total           1721                       # number of ReadCleanReq accesses(hits+misses)
system.l2.ReadSharedReq_accesses::cpu.data         7190                       # number of ReadSharedReq accesses(hits+misses)
system.l2.ReadSharedReq_accesses::total          7190                       # number of ReadSharedReq accesses(hits+misses)
system.l2.demand_accesses::cpu.inst              1721                       # number of demand (read+write) accesses
system.l2.demand_accesses::cpu.data             24466                       # number of demand (read+write) accesses
system.l2.demand_accesses::total                26187                       # number of demand (read+write) accesses
system.l2.overall_accesses::cpu.inst             1721                       # number of overall (read+write) accesses
system.l2.overall_accesses::cpu.data            24466                       # number of overall (read+write) accesses
system.l2.overall_accesses::total               26187                       # number of overall (read+write) accesses
system.l2.ReadExReq_miss_rate::cpu.data      0.162190                       # miss rate for ReadExReq accesses
system.l2.ReadExReq_miss_rate::total         0.162190                       # miss rate for ReadExReq accesses
system.l2.ReadCleanReq_miss_rate::cpu.inst     0.794306                       # miss rate for ReadCleanReq accesses
system.l2.ReadCleanReq_miss_rate::total      0.794306                       # miss rate for ReadCleanReq accesses
system.l2.ReadSharedReq_miss_rate::cpu.data     0.137830                       # miss rate for ReadSharedReq accesses
system.l2.ReadSharedReq_miss_rate::total     0.137830                       # miss rate for ReadSharedReq accesses
system.l2.demand_miss_rate::cpu.inst         0.794306                       # miss rate for demand accesses
system.l2.demand_miss_rate::cpu.data         0.155031                       # miss rate for demand accesses
system.l2.demand_miss_rate::total            0.197044                       # miss rate for demand accesses
system.l2.overall_miss_rate::cpu.inst        0.794306                       # miss rate for overall accesses
system.l2.overall_miss_rate::cpu.data        0.155031                       # miss rate for overall accesses
system.l2.overall_miss_rate::total           0.197044                       # miss rate for overall accesses
system.l2.ReadExReq_avg_miss_latency::cpu.data 82320.485368                       # average ReadExReq miss latency
system.l2.ReadExReq_avg_miss_latency::total 82320.485368                       # average ReadExReq miss latency
system.l2.ReadCleanReq_avg_miss_latency::cpu.inst 76538.771031                       # average ReadCleanReq miss latency
system.l2.ReadCleanReq_avg_miss_latency::total 76538.771031                       # average ReadCleanReq miss latency
system.l2.ReadSharedReq_avg_miss_latency::cpu.data 78858.728557                       # average ReadSharedReq miss latency
system.l2.ReadSharedReq_avg_miss_latency::total 78858.728557                       # average ReadSharedReq miss latency
system.l2.demand_avg_miss_latency::cpu.inst 76538.771031                       # average overall miss latency
system.l2.demand_avg_miss_latency::cpu.data 81416.029528                       # average overall miss latency
system.l2.demand_avg_miss_latency::total 80123.934109                       # average overall miss latency
system.l2.overall_avg_miss_latency::cpu.inst 76538.771031                       # average overall miss latency
system.l2.overall_avg_miss_latency::cpu.data 81416.029528                       # average overall miss latency
system.l2.overall_avg_miss_latency::total 80123.934109                       # average overall miss latency
system.l2.blocked_cycles::no_mshrs                  0                       # number of cycles access was blocked
system.l2.blocked_cycles::no_targets                0                       # number of cycles access was blocked
system.l2.blocked::no_mshrs                         0                       # number of cycles access was blocked
system.l2.blocked::no_targets                       0                       # number of cycles access was blocked
system.l2.avg_blocked_cycles::no_mshrs            nan                       # average number of cycles each access was blocked
system.l2.avg_blocked_cycles::no_targets          nan                       # average number of cycles each access was blocked
system.l2.fast_writes                               0                       # number of fast writes performed
system.l2.cache_copies                              0                       # number of cache copies performed
system.l2.writebacks::writebacks                   37                       # number of writebacks
system.l2.writebacks::total                        37                       # number of writebacks
system.l2.CleanEvict_mshr_misses::writebacks           55                       # number of CleanEvict MSHR misses
system.l2.CleanEvict_mshr_misses::total            55                       # number of CleanEvict MSHR misses
system.l2.ReadExReq_mshr_misses::cpu.data         2802                       # number of ReadExReq MSHR misses
system.l2.ReadExReq_mshr_misses::total           2802                       # number of ReadExReq MSHR misses
system.l2.ReadCleanReq_mshr_misses::cpu.inst         1367                       # number of ReadCleanReq MSHR misses
system.l2.ReadCleanReq_mshr_misses::total         1367                       # number of ReadCleanReq MSHR misses
system.l2.ReadSharedReq_mshr_misses::cpu.data          991                       # number of ReadSharedReq MSHR misses
system.l2.ReadSharedReq_mshr_misses::total          991                       # number of ReadSharedReq MSHR misses
system.l2.demand_mshr_misses::cpu.inst           1367                       # number of demand (read+write) MSHR misses
system.l2.demand_mshr_misses::cpu.data           3793                       # number of demand (read+write) MSHR misses
system.l2.demand_mshr_misses::total              5160                       # number of demand (read+write) MSHR misses
system.l2.overall_mshr_misses::cpu.inst          1367                       # number of overall MSHR misses
system.l2.overall_mshr_misses::cpu.data          3793                       # number of overall MSHR misses
system.l2.overall_mshr_misses::total             5160                       # number of overall MSHR misses
system.l2.ReadExReq_mshr_miss_latency::cpu.data    202642000                       # number of ReadExReq MSHR miss cycles
system.l2.ReadExReq_mshr_miss_latency::total    202642000                       # number of ReadExReq MSHR miss cycles
system.l2.ReadCleanReq_mshr_miss_latency::cpu.inst     90958500                       # number of ReadCleanReq MSHR miss cycles
system.l2.ReadCleanReq_mshr_miss_latency::total     90958500                       # number of ReadCleanReq MSHR miss cycles
system.l2.ReadSharedReq_mshr_miss_latency::cpu.data     68239000                       # number of ReadSharedReq MSHR miss cycles
system.l2.ReadSharedReq_mshr_miss_latency::total     68239000                       # number of ReadSharedReq MSHR miss cycles
system.l2.demand_mshr_miss_latency::cpu.inst     90958500                       # number of demand (read+write) MSHR miss cycles
system.l2.demand_mshr_miss_latency::cpu.data    270881000                       # number of demand (read+write) MSHR miss cycles
system.l2.demand_mshr_miss_latency::total    361839500                       # number of demand (read+write) MSHR miss cycles
system.l2.overall_mshr_miss_latency::cpu.inst     90958500                       # number of overall MSHR miss cycles
system.l2.overall_mshr_miss_latency::cpu.data    270881000                       # number of overall MSHR miss cycles
system.l2.overall_mshr_miss_latency::total    361839500                       # number of overall MSHR miss cycles
system.l2.CleanEvict_mshr_miss_rate::writebacks          inf                       # mshr miss rate for CleanEvict accesses
system.l2.CleanEvict_mshr_miss_rate::total          inf                       # mshr miss rate for CleanEvict accesses
system.l2.ReadExReq_mshr_miss_rate::cpu.data     0.162190                       # mshr miss rate for ReadExReq accesses
system.l2.ReadExReq_mshr_miss_rate::total     0.162190                       # mshr miss rate for ReadExReq accesses
system.l2.ReadCleanReq_mshr_miss_rate::cpu.inst     0.794306                       # mshr miss rate for ReadCleanReq accesses
system.l2.ReadCleanReq_mshr_miss_rate::total     0.794306                       # mshr miss rate for ReadCleanReq accesses
system.l2.ReadSharedReq_mshr_miss_rate::cpu.data     0.137830                       # mshr miss rate for ReadSharedReq accesses
system.l2.ReadSharedReq_mshr_miss_rate::total     0.137830                       # mshr miss rate for ReadSharedReq accesses
system.l2.demand_mshr_miss_rate::cpu.inst     0.794306                       # mshr miss rate for demand accesses
system.l2.demand_mshr_miss_rate::cpu.data     0.155031                       # mshr miss rate for demand accesses
system.l2.demand_mshr_miss_rate::total       0.197044                       # mshr miss rate for demand accesses
system.l2.overall_mshr_miss_rate::cpu.inst     0.794306                       # mshr miss rate for overall accesses
system.l2.overall_mshr_miss_rate::cpu.data     0.155031                       # mshr miss rate for overall accesses
system.l2.overall_mshr_miss_rate::total      0.197044                       # mshr miss rate for overall accesses
system.l2.ReadExReq_avg_mshr_miss_latency::cpu.data 72320.485368                       # average ReadExReq mshr miss latency
system.l2.ReadExReq_avg_mshr_miss_latency::total 72320.485368                       # average ReadExReq mshr miss latency
system.l2.ReadCleanReq_avg_mshr_miss_latency::cpu.inst 66538.771031                       # average ReadCleanReq mshr miss latency
system.l2.ReadCleanReq_avg_mshr_miss_latency::total 66538.771031                       # average ReadCleanReq mshr miss latency
system.l2.ReadSharedReq_avg_mshr_miss_latency::cpu.data 68858.728557                       # average ReadSharedReq mshr miss latency
system.l2.ReadSharedReq_avg_mshr_miss_latency::total 68858.728557                       # average ReadSharedReq mshr miss latency
system.l2.demand_avg_mshr_miss_latency::cpu.inst 66538.771031                       # average overall mshr miss latency
system.l2.demand_avg_mshr_miss_latency::cpu.data 71416.029528                       # average overall mshr miss latency
system.l2.demand_avg_mshr_miss_latency::total 70123.934109                       # average overall mshr miss latency
system.l2.overall_avg_mshr_miss_latency::cpu.inst 66538.771031                       # average overall mshr miss latency
system.l2.overall_avg_mshr_miss_latency::cpu.data 71416.029528                       # average overall mshr miss latency
system.l2.overall_avg_mshr_miss_latency::total 70123.934109                       # average overall mshr miss latency
system.l2.no_allocate_misses                        0                       # Number of misses that were no-allocate
system.membus.trans_dist::ReadResp               2358                       # Transaction distribution
system.membus.trans_dist::WritebackDirty           37                       # Transaction distribution
system.membus.trans_dist::CleanEvict              162                       # Transaction distribution
system.membus.trans_dist::ReadExReq              2802                       # Transaction distribution
system.membus.trans_dist::ReadExResp             2802                       # Transaction distribution
system.membus.trans_dist::ReadSharedReq          2358                       # Transaction distribution
system.membus.pkt_count_system.l2.mem_side::system.mem_ctrls.port        10519                       # Packet count per connected master and slave (bytes)
system.membus.pkt_count_system.l2.mem_side::total        10519                       # Packet count per connected master and slave (bytes)
system.membus.pkt_count::total                  10519                       # Packet count per connected master and slave (bytes)
system.membus.pkt_size_system.l2.mem_side::system.mem_ctrls.port       332608                       # Cumulative packet size per connected master and slave (bytes)
system.membus.pkt_size_system.l2.mem_side::total       332608                       # Cumulative packet size per connected master and slave (bytes)
system.membus.pkt_size::total                  332608                       # Cumulative packet size per connected master and slave (bytes)
system.membus.snoops                                0                       # Total snoops (count)
system.membus.snoop_fanout::samples              5359                       # Request fanout histogram
system.membus.snoop_fanout::mean                    0                       # Request fanout histogram
system.membus.snoop_fanout::stdev                   0                       # Request fanout histogram
system.membus.snoop_fanout::underflows              0      0.00%      0.00% # Request fanout histogram
system.membus.snoop_fanout::0                    5359    100.00%    100.00% # Request fanout histogram
system.membus.snoop_fanout::1                       0      0.00%    100.00% # Request fanout histogram
system.membus.snoop_fanout::overflows               0      0.00%    100.00% # Request fanout histogram
system.membus.snoop_fanout::min_value               0                       # Request fanout histogram
system.membus.snoop_fanout::max_value               0                       # Request fanout histogram
system.membus.snoop_fanout::total                5359                       # Request fanout histogram
system.membus.reqLayer2.occupancy             5640500                       # Layer occupancy (ticks)
system.membus.reqLayer2.utilization               0.0                       # Layer utilization (%)
system.membus.respLayer1.occupancy           27596500                       # Layer occupancy (ticks)
system.membus.respLayer1.utilization              0.0                       # Layer utilization (%)
system.tol2bus.snoop_filter.tot_requests        49420                       # Total number of requests made to the snoop filter.
system.tol2bus.snoop_filter.hit_single_requests        23233                       # Number of requests hitting in the snoop filter with a single holder of the requested data.
system.tol2bus.snoop_filter.hit_multi_requests            1                       # Number of requests hitting in the snoop filter with multiple (>1) holders of the requested data.
system.tol2bus.snoop_filter.tot_snoops            277                       # Total number of snoops made to the snoop filter.
system.tol2bus.snoop_filter.hit_single_snoops          277                       # Number of snoops hitting in the snoop filter with a single holder of the requested data.
system.tol2bus.snoop_filter.hit_multi_snoops            0                       # Number of snoops hitting in the snoop filter with multiple (>1) holders of the requested data.
system.tol2bus.trans_dist::ReadResp              8911                       # Transaction distribution
system.tol2bus.trans_dist::WritebackDirty        21560                       # Transaction distribution
system.tol2bus.trans_dist::WritebackClean          814                       # Transaction distribution
system.tol2bus.trans_dist::CleanEvict            1279                       # Transaction distribution
system.tol2bus.trans_dist::ReadExReq            17276                       # Transaction distribution
system.tol2bus.trans_dist::ReadExResp           17276                       # Transaction distribution
system.tol2bus.trans_dist::ReadCleanReq          1721                       # Transaction distribution
system.tol2bus.trans_dist::ReadSharedReq         7190                       # Transaction distribution
system.tol2bus.pkt_count_system.cpu.icache.mem_side::system.l2.cpu_side         4256                       # Packet count per connected master and slave (bytes)
system.tol2bus.pkt_count_system.cpu.dcache.mem_side::system.l2.cpu_side        71350                       # Packet count per connected master and slave (bytes)
system.tol2bus.pkt_count::total                 75606                       # Packet count per connected master and slave (bytes)
system.tol2bus.pkt_size_system.cpu.icache.mem_side::system.l2.cpu_side       162240                       # Cumulative packet size per connected master and slave (bytes)
system.tol2bus.pkt_size_system.cpu.dcache.mem_side::system.l2.cpu_side      2943296                       # Cumulative packet size per connected master and slave (bytes)
system.tol2bus.pkt_size::total                3105536                       # Cumulative packet size per connected master and slave (bytes)
system.tol2bus.snoops                             421                       # Total snoops (count)
system.tol2bus.snoop_fanout::samples            26608                       # Request fanout histogram
system.tol2bus.snoop_fanout::mean            0.010448                       # Request fanout histogram
system.tol2bus.snoop_fanout::stdev           0.101682                       # Request fanout histogram
system.tol2bus.snoop_fanout::underflows             0      0.00%      0.00% # Request fanout histogram
system.tol2bus.snoop_fanout::0                  26330     98.96%     98.96% # Request fanout histogram
system.tol2bus.snoop_fanout::1                    278      1.04%    100.00% # Request fanout histogram
system.tol2bus.snoop_fanout::2                      0      0.00%    100.00% # Request fanout histogram
system.tol2bus.snoop_fanout::3                      0      0.00%    100.00% # Request fanout histogram
system.tol2bus.snoop_fanout::4                      0      0.00%    100.00% # Request fanout histogram
system.tol2bus.snoop_fanout::overflows              0      0.00%    100.00% # Request fanout histogram
system.tol2bus.snoop_fanout::min_value              0                       # Request fanout histogram
system.tol2bus.snoop_fanout::max_value              1                       # Request fanout histogram
system.tol2bus.snoop_fanout::total              26608                       # Request fanout histogram
system.tol2bus.reqLayer0.occupancy           47048000                       # Layer occupancy (ticks)
system.tol2bus.reqLayer0.utilization              0.0                       # Layer utilization (%)
system.tol2bus.respLayer0.occupancy           2581500                       # Layer occupancy (ticks)
system.tol2bus.respLayer0.utilization             0.0                       # Layer utilization (%)
system.tol2bus.respLayer1.occupancy          36699000                       # Layer occupancy (ticks)
system.tol2bus.respLayer1.utilization             0.0                       # Layer utilization (%)

---------- End Simulation Statistics   ----------
