
---------- Begin Simulation Statistics ----------
sim_seconds                                  0.647811                       # Number of seconds simulated
sim_ticks                                647811292500                       # Number of ticks simulated
final_tick                               647811292500                       # Number of ticks from beginning of simulation (restored from checkpoints and never reset)
sim_freq                                 1000000000000                       # Frequency of simulated ticks
host_inst_rate                                  91003                       # Simulator instruction rate (inst/s)
host_op_rate                                   174692                       # Simulator op (including micro ops) rate (op/s)
host_tick_rate                             1179058499                       # Simulator tick rate (ticks/s)
host_mem_usage                                 833900                       # Number of bytes of host memory used
host_seconds                                   549.43                       # Real time elapsed on the host
sim_insts                                    50000000                       # Number of instructions simulated
sim_ops                                      95981250                       # Number of ops (including micro ops) simulated
system.voltage_domain.voltage                       1                       # Voltage in Volts
system.clk_domain.clock                          1000                       # Clock period in ticks
system.mem_ctrls.bytes_read::cpu.inst           51264                       # Number of bytes read from this memory
system.mem_ctrls.bytes_read::cpu.data       414840128                       # Number of bytes read from this memory
system.mem_ctrls.bytes_read::total          414891392                       # Number of bytes read from this memory
system.mem_ctrls.bytes_inst_read::cpu.inst        51264                       # Number of instructions bytes read from this memory
system.mem_ctrls.bytes_inst_read::total         51264                       # Number of instructions bytes read from this memory
system.mem_ctrls.bytes_written::writebacks    413774720                       # Number of bytes written to this memory
system.mem_ctrls.bytes_written::total       413774720                       # Number of bytes written to this memory
system.mem_ctrls.num_reads::cpu.inst              801                       # Number of read requests responded to by this memory
system.mem_ctrls.num_reads::cpu.data          6481877                       # Number of read requests responded to by this memory
system.mem_ctrls.num_reads::total             6482678                       # Number of read requests responded to by this memory
system.mem_ctrls.num_writes::writebacks       6465230                       # Number of write requests responded to by this memory
system.mem_ctrls.num_writes::total            6465230                       # Number of write requests responded to by this memory
system.mem_ctrls.bw_read::cpu.inst              79134                       # Total read bandwidth from this memory (bytes/s)
system.mem_ctrls.bw_read::cpu.data          640371869                       # Total read bandwidth from this memory (bytes/s)
system.mem_ctrls.bw_read::total             640451003                       # Total read bandwidth from this memory (bytes/s)
system.mem_ctrls.bw_inst_read::cpu.inst         79134                       # Instruction read bandwidth from this memory (bytes/s)
system.mem_ctrls.bw_inst_read::total            79134                       # Instruction read bandwidth from this memory (bytes/s)
system.mem_ctrls.bw_write::writebacks       638727242                       # Write bandwidth from this memory (bytes/s)
system.mem_ctrls.bw_write::total            638727242                       # Write bandwidth from this memory (bytes/s)
system.mem_ctrls.bw_total::writebacks       638727242                       # Total bandwidth to/from this memory (bytes/s)
system.mem_ctrls.bw_total::cpu.inst             79134                       # Total bandwidth to/from this memory (bytes/s)
system.mem_ctrls.bw_total::cpu.data         640371869                       # Total bandwidth to/from this memory (bytes/s)
system.mem_ctrls.bw_total::total           1279178245                       # Total bandwidth to/from this memory (bytes/s)
system.mem_ctrls.readReqs                     6482678                       # Number of read requests accepted
system.mem_ctrls.writeReqs                    6465230                       # Number of write requests accepted
system.mem_ctrls.readBursts                   6482678                       # Number of DRAM read bursts, including those serviced by the write queue
system.mem_ctrls.writeBursts                  6465230                       # Number of DRAM write bursts, including those merged in the write queue
system.mem_ctrls.bytesReadDRAM              414891328                       # Total number of bytes read from DRAM
system.mem_ctrls.bytesReadWrQ                      64                       # Total number of bytes read from write queue
system.mem_ctrls.bytesWritten               413772736                       # Total number of bytes written to DRAM
system.mem_ctrls.bytesReadSys               414891392                       # Total read bytes from the system interface side
system.mem_ctrls.bytesWrittenSys            413774720                       # Total written bytes from the system interface side
system.mem_ctrls.servicedByWrQ                      1                       # Number of DRAM read bursts serviced by the write queue
system.mem_ctrls.mergedWrBursts                     0                       # Number of DRAM write bursts merged with an existing one
system.mem_ctrls.neitherReadNorWriteReqs          294                       # Number of requests that are neither read nor write
system.mem_ctrls.perBankRdBursts::0            405123                       # Per bank write bursts
system.mem_ctrls.perBankRdBursts::1            405056                       # Per bank write bursts
system.mem_ctrls.perBankRdBursts::2            405044                       # Per bank write bursts
system.mem_ctrls.perBankRdBursts::3            405057                       # Per bank write bursts
system.mem_ctrls.perBankRdBursts::4            405157                       # Per bank write bursts
system.mem_ctrls.perBankRdBursts::5            405098                       # Per bank write bursts
system.mem_ctrls.perBankRdBursts::6            404913                       # Per bank write bursts
system.mem_ctrls.perBankRdBursts::7            405002                       # Per bank write bursts
system.mem_ctrls.perBankRdBursts::8            405005                       # Per bank write bursts
system.mem_ctrls.perBankRdBursts::9            405137                       # Per bank write bursts
system.mem_ctrls.perBankRdBursts::10           405258                       # Per bank write bursts
system.mem_ctrls.perBankRdBursts::11           405381                       # Per bank write bursts
system.mem_ctrls.perBankRdBursts::12           405354                       # Per bank write bursts
system.mem_ctrls.perBankRdBursts::13           405372                       # Per bank write bursts
system.mem_ctrls.perBankRdBursts::14           405357                       # Per bank write bursts
system.mem_ctrls.perBankRdBursts::15           405363                       # Per bank write bursts
system.mem_ctrls.perBankWrBursts::0            403968                       # Per bank write bursts
system.mem_ctrls.perBankWrBursts::1            403979                       # Per bank write bursts
system.mem_ctrls.perBankWrBursts::2            403994                       # Per bank write bursts
system.mem_ctrls.perBankWrBursts::3            403934                       # Per bank write bursts
system.mem_ctrls.perBankWrBursts::4            404012                       # Per bank write bursts
system.mem_ctrls.perBankWrBursts::5            403964                       # Per bank write bursts
system.mem_ctrls.perBankWrBursts::6            403848                       # Per bank write bursts
system.mem_ctrls.perBankWrBursts::7            403888                       # Per bank write bursts
system.mem_ctrls.perBankWrBursts::8            403954                       # Per bank write bursts
system.mem_ctrls.perBankWrBursts::9            404047                       # Per bank write bursts
system.mem_ctrls.perBankWrBursts::10           404170                       # Per bank write bursts
system.mem_ctrls.perBankWrBursts::11           404323                       # Per bank write bursts
system.mem_ctrls.perBankWrBursts::12           404297                       # Per bank write bursts
system.mem_ctrls.perBankWrBursts::13           404286                       # Per bank write bursts
system.mem_ctrls.perBankWrBursts::14           404291                       # Per bank write bursts
system.mem_ctrls.perBankWrBursts::15           404244                       # Per bank write bursts
system.mem_ctrls.numRdRetry                         0                       # Number of times read queue was full causing retry
system.mem_ctrls.numWrRetry                         0                       # Number of times write queue was full causing retry
system.mem_ctrls.totGap                  647811277500                       # Total gap between requests
system.mem_ctrls.readPktSize::0                     0                       # Read request sizes (log2)
system.mem_ctrls.readPktSize::1                     0                       # Read request sizes (log2)
system.mem_ctrls.readPktSize::2                     0                       # Read request sizes (log2)
system.mem_ctrls.readPktSize::3                     0                       # Read request sizes (log2)
system.mem_ctrls.readPktSize::4                     0                       # Read request sizes (log2)
system.mem_ctrls.readPktSize::5                     0                       # Read request sizes (log2)
system.mem_ctrls.readPktSize::6               6482678                       # Read request sizes (log2)
system.mem_ctrls.writePktSize::0                    0                       # Write request sizes (log2)
system.mem_ctrls.writePktSize::1                    0                       # Write request sizes (log2)
system.mem_ctrls.writePktSize::2                    0                       # Write request sizes (log2)
system.mem_ctrls.writePktSize::3                    0                       # Write request sizes (log2)
system.mem_ctrls.writePktSize::4                    0                       # Write request sizes (log2)
system.mem_ctrls.writePktSize::5                    0                       # Write request sizes (log2)
system.mem_ctrls.writePktSize::6              6465230                       # Write request sizes (log2)
system.mem_ctrls.rdQLenPdf::0                 6482676                       # What read queue length does an incoming req see
system.mem_ctrls.rdQLenPdf::1                       1                       # What read queue length does an incoming req see
system.mem_ctrls.rdQLenPdf::2                       0                       # What read queue length does an incoming req see
system.mem_ctrls.rdQLenPdf::3                       0                       # What read queue length does an incoming req see
system.mem_ctrls.rdQLenPdf::4                       0                       # What read queue length does an incoming req see
system.mem_ctrls.rdQLenPdf::5                       0                       # What read queue length does an incoming req see
system.mem_ctrls.rdQLenPdf::6                       0                       # What read queue length does an incoming req see
system.mem_ctrls.rdQLenPdf::7                       0                       # What read queue length does an incoming req see
system.mem_ctrls.rdQLenPdf::8                       0                       # What read queue length does an incoming req see
system.mem_ctrls.rdQLenPdf::9                       0                       # What read queue length does an incoming req see
system.mem_ctrls.rdQLenPdf::10                      0                       # What read queue length does an incoming req see
system.mem_ctrls.rdQLenPdf::11                      0                       # What read queue length does an incoming req see
system.mem_ctrls.rdQLenPdf::12                      0                       # What read queue length does an incoming req see
system.mem_ctrls.rdQLenPdf::13                      0                       # What read queue length does an incoming req see
system.mem_ctrls.rdQLenPdf::14                      0                       # What read queue length does an incoming req see
system.mem_ctrls.rdQLenPdf::15                      0                       # What read queue length does an incoming req see
system.mem_ctrls.rdQLenPdf::16                      0                       # What read queue length does an incoming req see
system.mem_ctrls.rdQLenPdf::17                      0                       # What read queue length does an incoming req see
system.mem_ctrls.rdQLenPdf::18                      0                       # What read queue length does an incoming req see
system.mem_ctrls.rdQLenPdf::19                      0                       # What read queue length does an incoming req see
system.mem_ctrls.rdQLenPdf::20                      0                       # What read queue length does an incoming req see
system.mem_ctrls.rdQLenPdf::21                      0                       # What read queue length does an incoming req see
system.mem_ctrls.rdQLenPdf::22                      0                       # What read queue length does an incoming req see
system.mem_ctrls.rdQLenPdf::23                      0                       # What read queue length does an incoming req see
system.mem_ctrls.rdQLenPdf::24                      0                       # What read queue length does an incoming req see
system.mem_ctrls.rdQLenPdf::25                      0                       # What read queue length does an incoming req see
system.mem_ctrls.rdQLenPdf::26                      0                       # What read queue length does an incoming req see
system.mem_ctrls.rdQLenPdf::27                      0                       # What read queue length does an incoming req see
system.mem_ctrls.rdQLenPdf::28                      0                       # What read queue length does an incoming req see
system.mem_ctrls.rdQLenPdf::29                      0                       # What read queue length does an incoming req see
system.mem_ctrls.rdQLenPdf::30                      0                       # What read queue length does an incoming req see
system.mem_ctrls.rdQLenPdf::31                      0                       # What read queue length does an incoming req see
system.mem_ctrls.wrQLenPdf::0                       1                       # What write queue length does an incoming req see
system.mem_ctrls.wrQLenPdf::1                       1                       # What write queue length does an incoming req see
system.mem_ctrls.wrQLenPdf::2                       1                       # What write queue length does an incoming req see
system.mem_ctrls.wrQLenPdf::3                       1                       # What write queue length does an incoming req see
system.mem_ctrls.wrQLenPdf::4                       1                       # What write queue length does an incoming req see
system.mem_ctrls.wrQLenPdf::5                       1                       # What write queue length does an incoming req see
system.mem_ctrls.wrQLenPdf::6                       1                       # What write queue length does an incoming req see
system.mem_ctrls.wrQLenPdf::7                       1                       # What write queue length does an incoming req see
system.mem_ctrls.wrQLenPdf::8                       1                       # What write queue length does an incoming req see
system.mem_ctrls.wrQLenPdf::9                       1                       # What write queue length does an incoming req see
system.mem_ctrls.wrQLenPdf::10                      1                       # What write queue length does an incoming req see
system.mem_ctrls.wrQLenPdf::11                      1                       # What write queue length does an incoming req see
system.mem_ctrls.wrQLenPdf::12                      1                       # What write queue length does an incoming req see
system.mem_ctrls.wrQLenPdf::13                      1                       # What write queue length does an incoming req see
system.mem_ctrls.wrQLenPdf::14                      1                       # What write queue length does an incoming req see
system.mem_ctrls.wrQLenPdf::15                   1011                       # What write queue length does an incoming req see
system.mem_ctrls.wrQLenPdf::16                   1012                       # What write queue length does an incoming req see
system.mem_ctrls.wrQLenPdf::17                 402254                       # What write queue length does an incoming req see
system.mem_ctrls.wrQLenPdf::18                 403887                       # What write queue length does an incoming req see
system.mem_ctrls.wrQLenPdf::19                 403888                       # What write queue length does an incoming req see
system.mem_ctrls.wrQLenPdf::20                 403892                       # What write queue length does an incoming req see
system.mem_ctrls.wrQLenPdf::21                 403887                       # What write queue length does an incoming req see
system.mem_ctrls.wrQLenPdf::22                 403887                       # What write queue length does an incoming req see
system.mem_ctrls.wrQLenPdf::23                 403887                       # What write queue length does an incoming req see
system.mem_ctrls.wrQLenPdf::24                 403887                       # What write queue length does an incoming req see
system.mem_ctrls.wrQLenPdf::25                 406513                       # What write queue length does an incoming req see
system.mem_ctrls.wrQLenPdf::26                 403887                       # What write queue length does an incoming req see
system.mem_ctrls.wrQLenPdf::27                 403889                       # What write queue length does an incoming req see
system.mem_ctrls.wrQLenPdf::28                 403888                       # What write queue length does an incoming req see
system.mem_ctrls.wrQLenPdf::29                 403887                       # What write queue length does an incoming req see
system.mem_ctrls.wrQLenPdf::30                 403887                       # What write queue length does an incoming req see
system.mem_ctrls.wrQLenPdf::31                 403886                       # What write queue length does an incoming req see
system.mem_ctrls.wrQLenPdf::32                 403886                       # What write queue length does an incoming req see
system.mem_ctrls.wrQLenPdf::33                      0                       # What write queue length does an incoming req see
system.mem_ctrls.wrQLenPdf::34                      0                       # What write queue length does an incoming req see
system.mem_ctrls.wrQLenPdf::35                      0                       # What write queue length does an incoming req see
system.mem_ctrls.wrQLenPdf::36                      0                       # What write queue length does an incoming req see
system.mem_ctrls.wrQLenPdf::37                      0                       # What write queue length does an incoming req see
system.mem_ctrls.wrQLenPdf::38                      0                       # What write queue length does an incoming req see
system.mem_ctrls.wrQLenPdf::39                      0                       # What write queue length does an incoming req see
system.mem_ctrls.wrQLenPdf::40                      0                       # What write queue length does an incoming req see
system.mem_ctrls.wrQLenPdf::41                      0                       # What write queue length does an incoming req see
system.mem_ctrls.wrQLenPdf::42                      0                       # What write queue length does an incoming req see
system.mem_ctrls.wrQLenPdf::43                      0                       # What write queue length does an incoming req see
system.mem_ctrls.wrQLenPdf::44                      0                       # What write queue length does an incoming req see
system.mem_ctrls.wrQLenPdf::45                      0                       # What write queue length does an incoming req see
system.mem_ctrls.wrQLenPdf::46                      0                       # What write queue length does an incoming req see
system.mem_ctrls.wrQLenPdf::47                      0                       # What write queue length does an incoming req see
system.mem_ctrls.wrQLenPdf::48                      0                       # What write queue length does an incoming req see
system.mem_ctrls.wrQLenPdf::49                      0                       # What write queue length does an incoming req see
system.mem_ctrls.wrQLenPdf::50                      0                       # What write queue length does an incoming req see
system.mem_ctrls.wrQLenPdf::51                      0                       # What write queue length does an incoming req see
system.mem_ctrls.wrQLenPdf::52                      0                       # What write queue length does an incoming req see
system.mem_ctrls.wrQLenPdf::53                      0                       # What write queue length does an incoming req see
system.mem_ctrls.wrQLenPdf::54                      0                       # What write queue length does an incoming req see
system.mem_ctrls.wrQLenPdf::55                      0                       # What write queue length does an incoming req see
system.mem_ctrls.wrQLenPdf::56                      0                       # What write queue length does an incoming req see
system.mem_ctrls.wrQLenPdf::57                      0                       # What write queue length does an incoming req see
system.mem_ctrls.wrQLenPdf::58                      0                       # What write queue length does an incoming req see
system.mem_ctrls.wrQLenPdf::59                      0                       # What write queue length does an incoming req see
system.mem_ctrls.wrQLenPdf::60                      0                       # What write queue length does an incoming req see
system.mem_ctrls.wrQLenPdf::61                      0                       # What write queue length does an incoming req see
system.mem_ctrls.wrQLenPdf::62                      0                       # What write queue length does an incoming req see
system.mem_ctrls.wrQLenPdf::63                      0                       # What write queue length does an incoming req see
system.mem_ctrls.bytesPerActivate::samples       977998                       # Bytes accessed per row activation
system.mem_ctrls.bytesPerActivate::mean    847.305520                       # Bytes accessed per row activation
system.mem_ctrls.bytesPerActivate::gmean   739.537260                       # Bytes accessed per row activation
system.mem_ctrls.bytesPerActivate::stdev   297.651314                       # Bytes accessed per row activation
system.mem_ctrls.bytesPerActivate::0-127        32264      3.30%      3.30% # Bytes accessed per row activation
system.mem_ctrls.bytesPerActivate::128-255        37911      3.88%      7.18% # Bytes accessed per row activation
system.mem_ctrls.bytesPerActivate::256-383        47690      4.88%     12.05% # Bytes accessed per row activation
system.mem_ctrls.bytesPerActivate::384-511        43971      4.50%     16.55% # Bytes accessed per row activation
system.mem_ctrls.bytesPerActivate::512-639        35523      3.63%     20.18% # Bytes accessed per row activation
system.mem_ctrls.bytesPerActivate::640-767        54041      5.53%     25.71% # Bytes accessed per row activation
system.mem_ctrls.bytesPerActivate::768-895        32916      3.37%     29.07% # Bytes accessed per row activation
system.mem_ctrls.bytesPerActivate::896-1023        43044      4.40%     33.47% # Bytes accessed per row activation
system.mem_ctrls.bytesPerActivate::1024-1151       650638     66.53%    100.00% # Bytes accessed per row activation
system.mem_ctrls.bytesPerActivate::total       977998                       # Bytes accessed per row activation
system.mem_ctrls.rdPerTurnAround::samples       403886                       # Reads before turning the bus around for writes
system.mem_ctrls.rdPerTurnAround::mean      16.050725                       # Reads before turning the bus around for writes
system.mem_ctrls.rdPerTurnAround::gmean     16.010627                       # Reads before turning the bus around for writes
system.mem_ctrls.rdPerTurnAround::stdev     11.852025                       # Reads before turning the bus around for writes
system.mem_ctrls.rdPerTurnAround::0-255        403880    100.00%    100.00% # Reads before turning the bus around for writes
system.mem_ctrls.rdPerTurnAround::256-511            1      0.00%    100.00% # Reads before turning the bus around for writes
system.mem_ctrls.rdPerTurnAround::1024-1279            1      0.00%    100.00% # Reads before turning the bus around for writes
system.mem_ctrls.rdPerTurnAround::1792-2047            1      0.00%    100.00% # Reads before turning the bus around for writes
system.mem_ctrls.rdPerTurnAround::2304-2559            1      0.00%    100.00% # Reads before turning the bus around for writes
system.mem_ctrls.rdPerTurnAround::3584-3839            1      0.00%    100.00% # Reads before turning the bus around for writes
system.mem_ctrls.rdPerTurnAround::5376-5631            1      0.00%    100.00% # Reads before turning the bus around for writes
system.mem_ctrls.rdPerTurnAround::total        403886                       # Reads before turning the bus around for writes
system.mem_ctrls.wrPerTurnAround::samples       403886                       # Writes before turning the bus around for reads
system.mem_ctrls.wrPerTurnAround::mean      16.007485                       # Writes before turning the bus around for reads
system.mem_ctrls.wrPerTurnAround::gmean     16.006863                       # Writes before turning the bus around for reads
system.mem_ctrls.wrPerTurnAround::stdev      0.149512                       # Writes before turning the bus around for reads
system.mem_ctrls.wrPerTurnAround::16           402875     99.75%     99.75% # Writes before turning the bus around for reads
system.mem_ctrls.wrPerTurnAround::17                1      0.00%     99.75% # Writes before turning the bus around for reads
system.mem_ctrls.wrPerTurnAround::18                8      0.00%     99.75% # Writes before turning the bus around for reads
system.mem_ctrls.wrPerTurnAround::19             1002      0.25%    100.00% # Writes before turning the bus around for reads
system.mem_ctrls.wrPerTurnAround::total        403886                       # Writes before turning the bus around for reads
system.mem_ctrls.totQLat                  67732058000                       # Total ticks spent queuing
system.mem_ctrls.totMemAccLat            189282251750                       # Total ticks spent from burst creation until serviced by the DRAM
system.mem_ctrls.totBusLat                32413385000                       # Total ticks spent in databus transfers
system.mem_ctrls.avgQLat                     10448.16                       # Average queueing delay per DRAM burst
system.mem_ctrls.avgBusLat                    5000.00                       # Average bus latency per DRAM burst
system.mem_ctrls.avgMemAccLat                29198.16                       # Average memory access latency per DRAM burst
system.mem_ctrls.avgRdBW                       640.45                       # Average DRAM read bandwidth in MiByte/s
system.mem_ctrls.avgWrBW                       638.72                       # Average achieved write bandwidth in MiByte/s
system.mem_ctrls.avgRdBWSys                    640.45                       # Average system read bandwidth in MiByte/s
system.mem_ctrls.avgWrBWSys                    638.73                       # Average system write bandwidth in MiByte/s
system.mem_ctrls.peakBW                      12800.00                       # Theoretical peak bandwidth in MiByte/s
system.mem_ctrls.busUtil                         9.99                       # Data bus utilization in percentage
system.mem_ctrls.busUtilRead                     5.00                       # Data bus utilization in percentage for reads
system.mem_ctrls.busUtilWrite                    4.99                       # Data bus utilization in percentage for writes
system.mem_ctrls.avgRdQLen                       1.00                       # Average read queue length when enqueuing
system.mem_ctrls.avgWrQLen                      25.66                       # Average write queue length when enqueuing
system.mem_ctrls.readRowHits                  5954135                       # Number of row buffer hits during reads
system.mem_ctrls.writeRowHits                 6015742                       # Number of row buffer hits during writes
system.mem_ctrls.readRowHitRate                 91.85                       # Row buffer hit rate for reads
system.mem_ctrls.writeRowHitRate                93.05                       # Row buffer hit rate for writes
system.mem_ctrls.avgGap                      50032.12                       # Average gap between requests
system.mem_ctrls.pageHitRate                    92.45                       # Row buffer hit rate, read and write combined
system.mem_ctrls_0.actEnergy               3697422120                       # Energy for activate commands per rank (pJ)
system.mem_ctrls_0.preEnergy               2017442625                       # Energy for precharge commands per rank (pJ)
system.mem_ctrls_0.readEnergy             25275393000                       # Energy for read commands per rank (pJ)
system.mem_ctrls_0.writeEnergy            20940683760                       # Energy for write commands per rank (pJ)
system.mem_ctrls_0.refreshEnergy          42311683440                       # Energy for refresh commands per rank (pJ)
system.mem_ctrls_0.actBackEnergy         228646658160                       # Energy for active background per rank (pJ)
system.mem_ctrls_0.preBackEnergy         188117832000                       # Energy for precharge background per rank (pJ)
system.mem_ctrls_0.totalEnergy           511007115105                       # Total energy per rank (pJ)
system.mem_ctrls_0.averagePower            788.824393                       # Core power per rank (mW)
system.mem_ctrls_0.memoryStateTime::IDLE 308124053000                       # Time in different power states
system.mem_ctrls_0.memoryStateTime::REF   21631740000                       # Time in different power states
system.mem_ctrls_0.memoryStateTime::PRE_PDN            0                       # Time in different power states
system.mem_ctrls_0.memoryStateTime::ACT  318054112000                       # Time in different power states
system.mem_ctrls_0.memoryStateTime::ACT_PDN            0                       # Time in different power states
system.mem_ctrls_1.actEnergy               3696212520                       # Energy for activate commands per rank (pJ)
system.mem_ctrls_1.preEnergy               2016782625                       # Energy for precharge commands per rank (pJ)
system.mem_ctrls_1.readEnergy             25289253600                       # Energy for read commands per rank (pJ)
system.mem_ctrls_1.writeEnergy            20953598400                       # Energy for write commands per rank (pJ)
system.mem_ctrls_1.refreshEnergy          42311683440                       # Energy for refresh commands per rank (pJ)
system.mem_ctrls_1.actBackEnergy         228894296085                       # Energy for active background per rank (pJ)
system.mem_ctrls_1.preBackEnergy         187900605750                       # Energy for precharge background per rank (pJ)
system.mem_ctrls_1.totalEnergy           511062432420                       # Total energy per rank (pJ)
system.mem_ctrls_1.averagePower            788.909784                       # Core power per rank (mW)
system.mem_ctrls_1.memoryStateTime::IDLE 307767768250                       # Time in different power states
system.mem_ctrls_1.memoryStateTime::REF   21631740000                       # Time in different power states
system.mem_ctrls_1.memoryStateTime::PRE_PDN            0                       # Time in different power states
system.mem_ctrls_1.memoryStateTime::ACT  318410618750                       # Time in different power states
system.mem_ctrls_1.memoryStateTime::ACT_PDN            0                       # Time in different power states
system.cpu_voltage_domain.voltage                   1                       # Voltage in Volts
system.cpu_clk_domain.clock                       500                       # Clock period in ticks
system.cpu.apic_clk_domain.clock                 8000                       # Clock period in ticks
system.cpu.workload.num_syscalls                  108                       # Number of system calls
system.cpu.numCycles                       1295622585                       # number of cpu cycles simulated
system.cpu.numWorkItemsStarted                      0                       # number of work items this cpu started
system.cpu.numWorkItemsCompleted                    0                       # number of work items this cpu completed
system.cpu.committedInsts                    50000000                       # Number of instructions committed
system.cpu.committedOps                      95981250                       # Number of ops (including micro ops) committed
system.cpu.num_int_alu_accesses              95975785                       # Number of integer alu accesses
system.cpu.num_fp_alu_accesses               51833393                       # Number of float alu accesses
system.cpu.num_func_calls                        7602                       # number of times a function call or return occured
system.cpu.num_conditional_control_insts      6532565                       # number of instructions that are conditional controls
system.cpu.num_int_insts                     95975785                       # number of integer instructions
system.cpu.num_fp_insts                      51833393                       # number of float instructions
system.cpu.num_int_register_reads           219093278                       # number of times the integer registers were read
system.cpu.num_int_register_writes           37404612                       # number of times the integer registers were written
system.cpu.num_fp_register_reads             51836929                       # number of times the floating registers were read
system.cpu.num_fp_register_writes                4221                       # number of times the floating registers were written
system.cpu.num_cc_register_reads             34496135                       # number of times the CC registers were read
system.cpu.num_cc_register_writes            29304313                       # number of times the CC registers were written
system.cpu.num_mem_refs                      53378424                       # number of memory refs
system.cpu.num_load_insts                     1350127                       # Number of load instructions
system.cpu.num_store_insts                   52028297                       # Number of store instructions
system.cpu.num_idle_cycles                          0                       # Number of idle cycles
system.cpu.num_busy_cycles                 1295622585                       # Number of busy cycles
system.cpu.not_idle_fraction                        1                       # Percentage of non-idle cycles
system.cpu.idle_fraction                            0                       # Percentage of idle cycles
system.cpu.Branches                           6543945                       # Number of branches fetched
system.cpu.op_class::No_OpClass                  1613      0.00%      0.00% # Class of executed instruction
system.cpu.op_class::IntAlu                  42596797     44.38%     44.38% # Class of executed instruction
system.cpu.op_class::IntMult                      725      0.00%     44.38% # Class of executed instruction
system.cpu.op_class::IntDiv                        21      0.00%     44.38% # Class of executed instruction
system.cpu.op_class::FloatAdd                    3670      0.00%     44.39% # Class of executed instruction
system.cpu.op_class::FloatCmp                       0      0.00%     44.39% # Class of executed instruction
system.cpu.op_class::FloatCvt                       0      0.00%     44.39% # Class of executed instruction
system.cpu.op_class::FloatMult                      0      0.00%     44.39% # Class of executed instruction
system.cpu.op_class::FloatDiv                       0      0.00%     44.39% # Class of executed instruction
system.cpu.op_class::FloatSqrt                      0      0.00%     44.39% # Class of executed instruction
system.cpu.op_class::SimdAdd                        0      0.00%     44.39% # Class of executed instruction
system.cpu.op_class::SimdAddAcc                     0      0.00%     44.39% # Class of executed instruction
system.cpu.op_class::SimdAlu                        0      0.00%     44.39% # Class of executed instruction
system.cpu.op_class::SimdCmp                        0      0.00%     44.39% # Class of executed instruction
system.cpu.op_class::SimdCvt                        0      0.00%     44.39% # Class of executed instruction
system.cpu.op_class::SimdMisc                       0      0.00%     44.39% # Class of executed instruction
system.cpu.op_class::SimdMult                       0      0.00%     44.39% # Class of executed instruction
system.cpu.op_class::SimdMultAcc                    0      0.00%     44.39% # Class of executed instruction
system.cpu.op_class::SimdShift                      0      0.00%     44.39% # Class of executed instruction
system.cpu.op_class::SimdShiftAcc                   0      0.00%     44.39% # Class of executed instruction
system.cpu.op_class::SimdSqrt                       0      0.00%     44.39% # Class of executed instruction
system.cpu.op_class::SimdFloatAdd                   0      0.00%     44.39% # Class of executed instruction
system.cpu.op_class::SimdFloatAlu                   0      0.00%     44.39% # Class of executed instruction
system.cpu.op_class::SimdFloatCmp                   0      0.00%     44.39% # Class of executed instruction
system.cpu.op_class::SimdFloatCvt                   0      0.00%     44.39% # Class of executed instruction
system.cpu.op_class::SimdFloatDiv                   0      0.00%     44.39% # Class of executed instruction
system.cpu.op_class::SimdFloatMisc                  0      0.00%     44.39% # Class of executed instruction
system.cpu.op_class::SimdFloatMult                  0      0.00%     44.39% # Class of executed instruction
system.cpu.op_class::SimdFloatMultAcc               0      0.00%     44.39% # Class of executed instruction
system.cpu.op_class::SimdFloatSqrt                  0      0.00%     44.39% # Class of executed instruction
system.cpu.op_class::MemRead                  1350127      1.41%     45.79% # Class of executed instruction
system.cpu.op_class::MemWrite                52028297     54.21%    100.00% # Class of executed instruction
system.cpu.op_class::IprAccess                      0      0.00%    100.00% # Class of executed instruction
system.cpu.op_class::InstPrefetch                   0      0.00%    100.00% # Class of executed instruction
system.cpu.op_class::total                   95981250                       # Class of executed instruction
system.cpu.dcache.tags.replacements           6655204                       # number of replacements
system.cpu.dcache.tags.tagsinuse            15.999944                       # Cycle average of tags in use
system.cpu.dcache.tags.total_refs            46723218                       # Total number of references to valid blocks.
system.cpu.dcache.tags.sampled_refs           6655220                       # Sample count of references to valid blocks.
system.cpu.dcache.tags.avg_refs              7.020537                       # Average number of references to valid blocks.
system.cpu.dcache.tags.warmup_cycle          10107500                       # Cycle when the warmup percentage was hit.
system.cpu.dcache.tags.occ_blocks::cpu.data    15.999944                       # Average occupied blocks per requestor
system.cpu.dcache.tags.occ_percent::cpu.data     0.999997                       # Average percentage of cache occupancy
system.cpu.dcache.tags.occ_percent::total     0.999997                       # Average percentage of cache occupancy
system.cpu.dcache.tags.occ_task_id_blocks::1024           16                       # Occupied blocks per task id
system.cpu.dcache.tags.age_task_id_blocks_1024::0           16                       # Occupied blocks per task id
system.cpu.dcache.tags.occ_task_id_percent::1024            1                       # Percentage of cache occupancy per task id
system.cpu.dcache.tags.tag_accesses         113412096                       # Number of tag accesses
system.cpu.dcache.tags.data_accesses        113412096                       # Number of data accesses
system.cpu.dcache.ReadReq_hits::cpu.data      1254303                       # number of ReadReq hits
system.cpu.dcache.ReadReq_hits::total         1254303                       # number of ReadReq hits
system.cpu.dcache.WriteReq_hits::cpu.data     45468915                       # number of WriteReq hits
system.cpu.dcache.WriteReq_hits::total       45468915                       # number of WriteReq hits
system.cpu.dcache.demand_hits::cpu.data      46723218                       # number of demand (read+write) hits
system.cpu.dcache.demand_hits::total         46723218                       # number of demand (read+write) hits
system.cpu.dcache.overall_hits::cpu.data     46723218                       # number of overall hits
system.cpu.dcache.overall_hits::total        46723218                       # number of overall hits
system.cpu.dcache.ReadReq_misses::cpu.data        95828                       # number of ReadReq misses
system.cpu.dcache.ReadReq_misses::total         95828                       # number of ReadReq misses
system.cpu.dcache.WriteReq_misses::cpu.data      6559392                       # number of WriteReq misses
system.cpu.dcache.WriteReq_misses::total      6559392                       # number of WriteReq misses
system.cpu.dcache.demand_misses::cpu.data      6655220                       # number of demand (read+write) misses
system.cpu.dcache.demand_misses::total        6655220                       # number of demand (read+write) misses
system.cpu.dcache.overall_misses::cpu.data      6655220                       # number of overall misses
system.cpu.dcache.overall_misses::total       6655220                       # number of overall misses
system.cpu.dcache.ReadReq_miss_latency::cpu.data   1270856500                       # number of ReadReq miss cycles
system.cpu.dcache.ReadReq_miss_latency::total   1270856500                       # number of ReadReq miss cycles
system.cpu.dcache.WriteReq_miss_latency::cpu.data 528984119500                       # number of WriteReq miss cycles
system.cpu.dcache.WriteReq_miss_latency::total 528984119500                       # number of WriteReq miss cycles
system.cpu.dcache.demand_miss_latency::cpu.data 530254976000                       # number of demand (read+write) miss cycles
system.cpu.dcache.demand_miss_latency::total 530254976000                       # number of demand (read+write) miss cycles
system.cpu.dcache.overall_miss_latency::cpu.data 530254976000                       # number of overall miss cycles
system.cpu.dcache.overall_miss_latency::total 530254976000                       # number of overall miss cycles
system.cpu.dcache.ReadReq_accesses::cpu.data      1350131                       # number of ReadReq accesses(hits+misses)
system.cpu.dcache.ReadReq_accesses::total      1350131                       # number of ReadReq accesses(hits+misses)
system.cpu.dcache.WriteReq_accesses::cpu.data     52028307                       # number of WriteReq accesses(hits+misses)
system.cpu.dcache.WriteReq_accesses::total     52028307                       # number of WriteReq accesses(hits+misses)
system.cpu.dcache.demand_accesses::cpu.data     53378438                       # number of demand (read+write) accesses
system.cpu.dcache.demand_accesses::total     53378438                       # number of demand (read+write) accesses
system.cpu.dcache.overall_accesses::cpu.data     53378438                       # number of overall (read+write) accesses
system.cpu.dcache.overall_accesses::total     53378438                       # number of overall (read+write) accesses
system.cpu.dcache.ReadReq_miss_rate::cpu.data     0.070977                       # miss rate for ReadReq accesses
system.cpu.dcache.ReadReq_miss_rate::total     0.070977                       # miss rate for ReadReq accesses
system.cpu.dcache.WriteReq_miss_rate::cpu.data     0.126074                       # miss rate for WriteReq accesses
system.cpu.dcache.WriteReq_miss_rate::total     0.126074                       # miss rate for WriteReq accesses
system.cpu.dcache.demand_miss_rate::cpu.data     0.124680                       # miss rate for demand accesses
system.cpu.dcache.demand_miss_rate::total     0.124680                       # miss rate for demand accesses
system.cpu.dcache.overall_miss_rate::cpu.data     0.124680                       # miss rate for overall accesses
system.cpu.dcache.overall_miss_rate::total     0.124680                       # miss rate for overall accesses
system.cpu.dcache.ReadReq_avg_miss_latency::cpu.data 13261.849355                       # average ReadReq miss latency
system.cpu.dcache.ReadReq_avg_miss_latency::total 13261.849355                       # average ReadReq miss latency
system.cpu.dcache.WriteReq_avg_miss_latency::cpu.data 80645.297537                       # average WriteReq miss latency
system.cpu.dcache.WriteReq_avg_miss_latency::total 80645.297537                       # average WriteReq miss latency
system.cpu.dcache.demand_avg_miss_latency::cpu.data 79675.048458                       # average overall miss latency
system.cpu.dcache.demand_avg_miss_latency::total 79675.048458                       # average overall miss latency
system.cpu.dcache.overall_avg_miss_latency::cpu.data 79675.048458                       # average overall miss latency
system.cpu.dcache.overall_avg_miss_latency::total 79675.048458                       # average overall miss latency
system.cpu.dcache.blocked_cycles::no_mshrs            0                       # number of cycles access was blocked
system.cpu.dcache.blocked_cycles::no_targets            0                       # number of cycles access was blocked
system.cpu.dcache.blocked::no_mshrs                 0                       # number of cycles access was blocked
system.cpu.dcache.blocked::no_targets               0                       # number of cycles access was blocked
system.cpu.dcache.avg_blocked_cycles::no_mshrs          nan                       # average number of cycles each access was blocked
system.cpu.dcache.avg_blocked_cycles::no_targets          nan                       # average number of cycles each access was blocked
system.cpu.dcache.fast_writes                       0                       # number of fast writes performed
system.cpu.dcache.cache_copies                      0                       # number of cache copies performed
system.cpu.dcache.writebacks::writebacks      6566517                       # number of writebacks
system.cpu.dcache.writebacks::total           6566517                       # number of writebacks
system.cpu.dcache.ReadReq_mshr_misses::cpu.data        95828                       # number of ReadReq MSHR misses
system.cpu.dcache.ReadReq_mshr_misses::total        95828                       # number of ReadReq MSHR misses
system.cpu.dcache.WriteReq_mshr_misses::cpu.data      6559392                       # number of WriteReq MSHR misses
system.cpu.dcache.WriteReq_mshr_misses::total      6559392                       # number of WriteReq MSHR misses
system.cpu.dcache.demand_mshr_misses::cpu.data      6655220                       # number of demand (read+write) MSHR misses
system.cpu.dcache.demand_mshr_misses::total      6655220                       # number of demand (read+write) MSHR misses
system.cpu.dcache.overall_mshr_misses::cpu.data      6655220                       # number of overall MSHR misses
system.cpu.dcache.overall_mshr_misses::total      6655220                       # number of overall MSHR misses
system.cpu.dcache.ReadReq_mshr_miss_latency::cpu.data   1175028500                       # number of ReadReq MSHR miss cycles
system.cpu.dcache.ReadReq_mshr_miss_latency::total   1175028500                       # number of ReadReq MSHR miss cycles
system.cpu.dcache.WriteReq_mshr_miss_latency::cpu.data 522424727500                       # number of WriteReq MSHR miss cycles
system.cpu.dcache.WriteReq_mshr_miss_latency::total 522424727500                       # number of WriteReq MSHR miss cycles
system.cpu.dcache.demand_mshr_miss_latency::cpu.data 523599756000                       # number of demand (read+write) MSHR miss cycles
system.cpu.dcache.demand_mshr_miss_latency::total 523599756000                       # number of demand (read+write) MSHR miss cycles
system.cpu.dcache.overall_mshr_miss_latency::cpu.data 523599756000                       # number of overall MSHR miss cycles
system.cpu.dcache.overall_mshr_miss_latency::total 523599756000                       # number of overall MSHR miss cycles
system.cpu.dcache.ReadReq_mshr_miss_rate::cpu.data     0.070977                       # mshr miss rate for ReadReq accesses
system.cpu.dcache.ReadReq_mshr_miss_rate::total     0.070977                       # mshr miss rate for ReadReq accesses
system.cpu.dcache.WriteReq_mshr_miss_rate::cpu.data     0.126074                       # mshr miss rate for WriteReq accesses
system.cpu.dcache.WriteReq_mshr_miss_rate::total     0.126074                       # mshr miss rate for WriteReq accesses
system.cpu.dcache.demand_mshr_miss_rate::cpu.data     0.124680                       # mshr miss rate for demand accesses
system.cpu.dcache.demand_mshr_miss_rate::total     0.124680                       # mshr miss rate for demand accesses
system.cpu.dcache.overall_mshr_miss_rate::cpu.data     0.124680                       # mshr miss rate for overall accesses
system.cpu.dcache.overall_mshr_miss_rate::total     0.124680                       # mshr miss rate for overall accesses
system.cpu.dcache.ReadReq_avg_mshr_miss_latency::cpu.data 12261.849355                       # average ReadReq mshr miss latency
system.cpu.dcache.ReadReq_avg_mshr_miss_latency::total 12261.849355                       # average ReadReq mshr miss latency
system.cpu.dcache.WriteReq_avg_mshr_miss_latency::cpu.data 79645.297537                       # average WriteReq mshr miss latency
system.cpu.dcache.WriteReq_avg_mshr_miss_latency::total 79645.297537                       # average WriteReq mshr miss latency
system.cpu.dcache.demand_avg_mshr_miss_latency::cpu.data 78675.048458                       # average overall mshr miss latency
system.cpu.dcache.demand_avg_mshr_miss_latency::total 78675.048458                       # average overall mshr miss latency
system.cpu.dcache.overall_avg_mshr_miss_latency::cpu.data 78675.048458                       # average overall mshr miss latency
system.cpu.dcache.overall_avg_mshr_miss_latency::total 78675.048458                       # average overall mshr miss latency
system.cpu.dcache.no_allocate_misses                0                       # Number of misses that were no-allocate
system.cpu.dtb_walker_cache.tags.replacements            0                       # number of replacements
system.cpu.dtb_walker_cache.tags.tagsinuse            0                       # Cycle average of tags in use
system.cpu.dtb_walker_cache.tags.total_refs            0                       # Total number of references to valid blocks.
system.cpu.dtb_walker_cache.tags.sampled_refs            0                       # Sample count of references to valid blocks.
system.cpu.dtb_walker_cache.tags.avg_refs          nan                       # Average number of references to valid blocks.
system.cpu.dtb_walker_cache.tags.warmup_cycle            0                       # Cycle when the warmup percentage was hit.
system.cpu.dtb_walker_cache.tags.tag_accesses            0                       # Number of tag accesses
system.cpu.dtb_walker_cache.tags.data_accesses            0                       # Number of data accesses
system.cpu.dtb_walker_cache.blocked_cycles::no_mshrs            0                       # number of cycles access was blocked
system.cpu.dtb_walker_cache.blocked_cycles::no_targets            0                       # number of cycles access was blocked
system.cpu.dtb_walker_cache.blocked::no_mshrs            0                       # number of cycles access was blocked
system.cpu.dtb_walker_cache.blocked::no_targets            0                       # number of cycles access was blocked
system.cpu.dtb_walker_cache.avg_blocked_cycles::no_mshrs          nan                       # average number of cycles each access was blocked
system.cpu.dtb_walker_cache.avg_blocked_cycles::no_targets          nan                       # average number of cycles each access was blocked
system.cpu.dtb_walker_cache.fast_writes             0                       # number of fast writes performed
system.cpu.dtb_walker_cache.cache_copies            0                       # number of cache copies performed
system.cpu.dtb_walker_cache.no_allocate_misses            0                       # Number of misses that were no-allocate
system.cpu.icache.tags.replacements                65                       # number of replacements
system.cpu.icache.tags.tagsinuse           508.443777                       # Cycle average of tags in use
system.cpu.icache.tags.total_refs            70767702                       # Total number of references to valid blocks.
system.cpu.icache.tags.sampled_refs               835                       # Sample count of references to valid blocks.
system.cpu.icache.tags.avg_refs          84751.738922                       # Average number of references to valid blocks.
system.cpu.icache.tags.warmup_cycle                 0                       # Cycle when the warmup percentage was hit.
system.cpu.icache.tags.occ_blocks::cpu.inst   508.443777                       # Average occupied blocks per requestor
system.cpu.icache.tags.occ_percent::cpu.inst     0.248264                       # Average percentage of cache occupancy
system.cpu.icache.tags.occ_percent::total     0.248264                       # Average percentage of cache occupancy
system.cpu.icache.tags.occ_task_id_blocks::1024          770                       # Occupied blocks per task id
system.cpu.icache.tags.age_task_id_blocks_1024::4          770                       # Occupied blocks per task id
system.cpu.icache.tags.occ_task_id_percent::1024     0.375977                       # Percentage of cache occupancy per task id
system.cpu.icache.tags.tag_accesses         141537909                       # Number of tag accesses
system.cpu.icache.tags.data_accesses        141537909                       # Number of data accesses
system.cpu.icache.ReadReq_hits::cpu.inst     70767702                       # number of ReadReq hits
system.cpu.icache.ReadReq_hits::total        70767702                       # number of ReadReq hits
system.cpu.icache.demand_hits::cpu.inst      70767702                       # number of demand (read+write) hits
system.cpu.icache.demand_hits::total         70767702                       # number of demand (read+write) hits
system.cpu.icache.overall_hits::cpu.inst     70767702                       # number of overall hits
system.cpu.icache.overall_hits::total        70767702                       # number of overall hits
system.cpu.icache.ReadReq_misses::cpu.inst          835                       # number of ReadReq misses
system.cpu.icache.ReadReq_misses::total           835                       # number of ReadReq misses
system.cpu.icache.demand_misses::cpu.inst          835                       # number of demand (read+write) misses
system.cpu.icache.demand_misses::total            835                       # number of demand (read+write) misses
system.cpu.icache.overall_misses::cpu.inst          835                       # number of overall misses
system.cpu.icache.overall_misses::total           835                       # number of overall misses
system.cpu.icache.ReadReq_miss_latency::cpu.inst     65521000                       # number of ReadReq miss cycles
system.cpu.icache.ReadReq_miss_latency::total     65521000                       # number of ReadReq miss cycles
system.cpu.icache.demand_miss_latency::cpu.inst     65521000                       # number of demand (read+write) miss cycles
system.cpu.icache.demand_miss_latency::total     65521000                       # number of demand (read+write) miss cycles
system.cpu.icache.overall_miss_latency::cpu.inst     65521000                       # number of overall miss cycles
system.cpu.icache.overall_miss_latency::total     65521000                       # number of overall miss cycles
system.cpu.icache.ReadReq_accesses::cpu.inst     70768537                       # number of ReadReq accesses(hits+misses)
system.cpu.icache.ReadReq_accesses::total     70768537                       # number of ReadReq accesses(hits+misses)
system.cpu.icache.demand_accesses::cpu.inst     70768537                       # number of demand (read+write) accesses
system.cpu.icache.demand_accesses::total     70768537                       # number of demand (read+write) accesses
system.cpu.icache.overall_accesses::cpu.inst     70768537                       # number of overall (read+write) accesses
system.cpu.icache.overall_accesses::total     70768537                       # number of overall (read+write) accesses
system.cpu.icache.ReadReq_miss_rate::cpu.inst     0.000012                       # miss rate for ReadReq accesses
system.cpu.icache.ReadReq_miss_rate::total     0.000012                       # miss rate for ReadReq accesses
system.cpu.icache.demand_miss_rate::cpu.inst     0.000012                       # miss rate for demand accesses
system.cpu.icache.demand_miss_rate::total     0.000012                       # miss rate for demand accesses
system.cpu.icache.overall_miss_rate::cpu.inst     0.000012                       # miss rate for overall accesses
system.cpu.icache.overall_miss_rate::total     0.000012                       # miss rate for overall accesses
system.cpu.icache.ReadReq_avg_miss_latency::cpu.inst 78468.263473                       # average ReadReq miss latency
system.cpu.icache.ReadReq_avg_miss_latency::total 78468.263473                       # average ReadReq miss latency
system.cpu.icache.demand_avg_miss_latency::cpu.inst 78468.263473                       # average overall miss latency
system.cpu.icache.demand_avg_miss_latency::total 78468.263473                       # average overall miss latency
system.cpu.icache.overall_avg_miss_latency::cpu.inst 78468.263473                       # average overall miss latency
system.cpu.icache.overall_avg_miss_latency::total 78468.263473                       # average overall miss latency
system.cpu.icache.blocked_cycles::no_mshrs            0                       # number of cycles access was blocked
system.cpu.icache.blocked_cycles::no_targets            0                       # number of cycles access was blocked
system.cpu.icache.blocked::no_mshrs                 0                       # number of cycles access was blocked
system.cpu.icache.blocked::no_targets               0                       # number of cycles access was blocked
system.cpu.icache.avg_blocked_cycles::no_mshrs          nan                       # average number of cycles each access was blocked
system.cpu.icache.avg_blocked_cycles::no_targets          nan                       # average number of cycles each access was blocked
system.cpu.icache.fast_writes                       0                       # number of fast writes performed
system.cpu.icache.cache_copies                      0                       # number of cache copies performed
system.cpu.icache.writebacks::writebacks           65                       # number of writebacks
system.cpu.icache.writebacks::total                65                       # number of writebacks
system.cpu.icache.ReadReq_mshr_misses::cpu.inst          835                       # number of ReadReq MSHR misses
system.cpu.icache.ReadReq_mshr_misses::total          835                       # number of ReadReq MSHR misses
system.cpu.icache.demand_mshr_misses::cpu.inst          835                       # number of demand (read+write) MSHR misses
system.cpu.icache.demand_mshr_misses::total          835                       # number of demand (read+write) MSHR misses
system.cpu.icache.overall_mshr_misses::cpu.inst          835                       # number of overall MSHR misses
system.cpu.icache.overall_mshr_misses::total          835                       # number of overall MSHR misses
system.cpu.icache.ReadReq_mshr_miss_latency::cpu.inst     64686000                       # number of ReadReq MSHR miss cycles
system.cpu.icache.ReadReq_mshr_miss_latency::total     64686000                       # number of ReadReq MSHR miss cycles
system.cpu.icache.demand_mshr_miss_latency::cpu.inst     64686000                       # number of demand (read+write) MSHR miss cycles
system.cpu.icache.demand_mshr_miss_latency::total     64686000                       # number of demand (read+write) MSHR miss cycles
system.cpu.icache.overall_mshr_miss_latency::cpu.inst     64686000                       # number of overall MSHR miss cycles
system.cpu.icache.overall_mshr_miss_latency::total     64686000                       # number of overall MSHR miss cycles
system.cpu.icache.ReadReq_mshr_miss_rate::cpu.inst     0.000012                       # mshr miss rate for ReadReq accesses
system.cpu.icache.ReadReq_mshr_miss_rate::total     0.000012                       # mshr miss rate for ReadReq accesses
system.cpu.icache.demand_mshr_miss_rate::cpu.inst     0.000012                       # mshr miss rate for demand accesses
system.cpu.icache.demand_mshr_miss_rate::total     0.000012                       # mshr miss rate for demand accesses
system.cpu.icache.overall_mshr_miss_rate::cpu.inst     0.000012                       # mshr miss rate for overall accesses
system.cpu.icache.overall_mshr_miss_rate::total     0.000012                       # mshr miss rate for overall accesses
system.cpu.icache.ReadReq_avg_mshr_miss_latency::cpu.inst 77468.263473                       # average ReadReq mshr miss latency
system.cpu.icache.ReadReq_avg_mshr_miss_latency::total 77468.263473                       # average ReadReq mshr miss latency
system.cpu.icache.demand_avg_mshr_miss_latency::cpu.inst 77468.263473                       # average overall mshr miss latency
system.cpu.icache.demand_avg_mshr_miss_latency::total 77468.263473                       # average overall mshr miss latency
system.cpu.icache.overall_avg_mshr_miss_latency::cpu.inst 77468.263473                       # average overall mshr miss latency
system.cpu.icache.overall_avg_mshr_miss_latency::total 77468.263473                       # average overall mshr miss latency
system.cpu.icache.no_allocate_misses                0                       # Number of misses that were no-allocate
system.cpu.itb_walker_cache.tags.replacements            0                       # number of replacements
system.cpu.itb_walker_cache.tags.tagsinuse            0                       # Cycle average of tags in use
system.cpu.itb_walker_cache.tags.total_refs            0                       # Total number of references to valid blocks.
system.cpu.itb_walker_cache.tags.sampled_refs            0                       # Sample count of references to valid blocks.
system.cpu.itb_walker_cache.tags.avg_refs          nan                       # Average number of references to valid blocks.
system.cpu.itb_walker_cache.tags.warmup_cycle            0                       # Cycle when the warmup percentage was hit.
system.cpu.itb_walker_cache.tags.tag_accesses            0                       # Number of tag accesses
system.cpu.itb_walker_cache.tags.data_accesses            0                       # Number of data accesses
system.cpu.itb_walker_cache.blocked_cycles::no_mshrs            0                       # number of cycles access was blocked
system.cpu.itb_walker_cache.blocked_cycles::no_targets            0                       # number of cycles access was blocked
system.cpu.itb_walker_cache.blocked::no_mshrs            0                       # number of cycles access was blocked
system.cpu.itb_walker_cache.blocked::no_targets            0                       # number of cycles access was blocked
system.cpu.itb_walker_cache.avg_blocked_cycles::no_mshrs          nan                       # average number of cycles each access was blocked
system.cpu.itb_walker_cache.avg_blocked_cycles::no_targets          nan                       # average number of cycles each access was blocked
system.cpu.itb_walker_cache.fast_writes             0                       # number of fast writes performed
system.cpu.itb_walker_cache.cache_copies            0                       # number of cache copies performed
system.cpu.itb_walker_cache.no_allocate_misses            0                       # Number of misses that were no-allocate
system.l2.tags.replacements                   6466324                       # number of replacements
system.l2.tags.tagsinuse                 16140.747378                       # Cycle average of tags in use
system.l2.tags.total_refs                      269240                       # Total number of references to valid blocks.
system.l2.tags.sampled_refs                   6482692                       # Sample count of references to valid blocks.
system.l2.tags.avg_refs                      0.041532                       # Average number of references to valid blocks.
system.l2.tags.warmup_cycle                         0                       # Cycle when the warmup percentage was hit.
system.l2.tags.occ_blocks::writebacks    16133.566474                       # Average occupied blocks per requestor
system.l2.tags.occ_blocks::cpu.inst          5.408309                       # Average occupied blocks per requestor
system.l2.tags.occ_blocks::cpu.data          1.772595                       # Average occupied blocks per requestor
system.l2.tags.occ_percent::writebacks       0.984715                       # Average percentage of cache occupancy
system.l2.tags.occ_percent::cpu.inst         0.000330                       # Average percentage of cache occupancy
system.l2.tags.occ_percent::cpu.data         0.000108                       # Average percentage of cache occupancy
system.l2.tags.occ_percent::total            0.985153                       # Average percentage of cache occupancy
system.l2.tags.occ_task_id_blocks::1024         16368                       # Occupied blocks per task id
system.l2.tags.age_task_id_blocks_1024::0          104                       # Occupied blocks per task id
system.l2.tags.age_task_id_blocks_1024::1          912                       # Occupied blocks per task id
system.l2.tags.age_task_id_blocks_1024::2         9138                       # Occupied blocks per task id
system.l2.tags.age_task_id_blocks_1024::3         6214                       # Occupied blocks per task id
system.l2.tags.occ_task_id_percent::1024     0.999023                       # Percentage of cache occupancy per task id
system.l2.tags.tag_accesses                  26353408                       # Number of tag accesses
system.l2.tags.data_accesses                 26353408                       # Number of data accesses
system.l2.WritebackDirty_hits::writebacks      6566517                       # number of WritebackDirty hits
system.l2.WritebackDirty_hits::total          6566517                       # number of WritebackDirty hits
system.l2.WritebackClean_hits::writebacks           65                       # number of WritebackClean hits
system.l2.WritebackClean_hits::total               65                       # number of WritebackClean hits
system.l2.ReadExReq_hits::cpu.data              77852                       # number of ReadExReq hits
system.l2.ReadExReq_hits::total                 77852                       # number of ReadExReq hits
system.l2.ReadCleanReq_hits::cpu.inst              34                       # number of ReadCleanReq hits
system.l2.ReadCleanReq_hits::total                 34                       # number of ReadCleanReq hits
system.l2.ReadSharedReq_hits::cpu.data          95491                       # number of ReadSharedReq hits
system.l2.ReadSharedReq_hits::total             95491                       # number of ReadSharedReq hits
system.l2.demand_hits::cpu.inst                    34                       # number of demand (read+write) hits
system.l2.demand_hits::cpu.data                173343                       # number of demand (read+write) hits
system.l2.demand_hits::total                   173377                       # number of demand (read+write) hits
system.l2.overall_hits::cpu.inst                   34                       # number of overall hits
system.l2.overall_hits::cpu.data               173343                       # number of overall hits
system.l2.overall_hits::total                  173377                       # number of overall hits
system.l2.ReadExReq_misses::cpu.data          6481540                       # number of ReadExReq misses
system.l2.ReadExReq_misses::total             6481540                       # number of ReadExReq misses
system.l2.ReadCleanReq_misses::cpu.inst           801                       # number of ReadCleanReq misses
system.l2.ReadCleanReq_misses::total              801                       # number of ReadCleanReq misses
system.l2.ReadSharedReq_misses::cpu.data          337                       # number of ReadSharedReq misses
system.l2.ReadSharedReq_misses::total             337                       # number of ReadSharedReq misses
system.l2.demand_misses::cpu.inst                 801                       # number of demand (read+write) misses
system.l2.demand_misses::cpu.data             6481877                       # number of demand (read+write) misses
system.l2.demand_misses::total                6482678                       # number of demand (read+write) misses
system.l2.overall_misses::cpu.inst                801                       # number of overall misses
system.l2.overall_misses::cpu.data            6481877                       # number of overall misses
system.l2.overall_misses::total               6482678                       # number of overall misses
system.l2.ReadExReq_miss_latency::cpu.data 511768191500                       # number of ReadExReq miss cycles
system.l2.ReadExReq_miss_latency::total  511768191500                       # number of ReadExReq miss cycles
system.l2.ReadCleanReq_miss_latency::cpu.inst     63062500                       # number of ReadCleanReq miss cycles
system.l2.ReadCleanReq_miss_latency::total     63062500                       # number of ReadCleanReq miss cycles
system.l2.ReadSharedReq_miss_latency::cpu.data     28628500                       # number of ReadSharedReq miss cycles
system.l2.ReadSharedReq_miss_latency::total     28628500                       # number of ReadSharedReq miss cycles
system.l2.demand_miss_latency::cpu.inst      63062500                       # number of demand (read+write) miss cycles
system.l2.demand_miss_latency::cpu.data  511796820000                       # number of demand (read+write) miss cycles
system.l2.demand_miss_latency::total     511859882500                       # number of demand (read+write) miss cycles
system.l2.overall_miss_latency::cpu.inst     63062500                       # number of overall miss cycles
system.l2.overall_miss_latency::cpu.data 511796820000                       # number of overall miss cycles
system.l2.overall_miss_latency::total    511859882500                       # number of overall miss cycles
system.l2.WritebackDirty_accesses::writebacks      6566517                       # number of WritebackDirty accesses(hits+misses)
system.l2.WritebackDirty_accesses::total      6566517                       # number of WritebackDirty accesses(hits+misses)
system.l2.WritebackClean_accesses::writebacks           65                       # number of WritebackClean accesses(hits+misses)
system.l2.WritebackClean_accesses::total           65                       # number of WritebackClean accesses(hits+misses)
system.l2.ReadExReq_accesses::cpu.data        6559392                       # number of ReadExReq accesses(hits+misses)
system.l2.ReadExReq_accesses::total           6559392                       # number of ReadExReq accesses(hits+misses)
system.l2.ReadCleanReq_accesses::cpu.inst          835                       # number of ReadCleanReq accesses(hits+misses)
system.l2.ReadCleanReq_accesses::total            835                       # number of ReadCleanReq accesses(hits+misses)
system.l2.ReadSharedReq_accesses::cpu.data        95828                       # number of ReadSharedReq accesses(hits+misses)
system.l2.ReadSharedReq_accesses::total         95828                       # number of ReadSharedReq accesses(hits+misses)
system.l2.demand_accesses::cpu.inst               835                       # number of demand (read+write) accesses
system.l2.demand_accesses::cpu.data           6655220                       # number of demand (read+write) accesses
system.l2.demand_accesses::total              6656055                       # number of demand (read+write) accesses
system.l2.overall_accesses::cpu.inst              835                       # number of overall (read+write) accesses
system.l2.overall_accesses::cpu.data          6655220                       # number of overall (read+write) accesses
system.l2.overall_accesses::total             6656055                       # number of overall (read+write) accesses
system.l2.ReadExReq_miss_rate::cpu.data      0.988131                       # miss rate for ReadExReq accesses
system.l2.ReadExReq_miss_rate::total         0.988131                       # miss rate for ReadExReq accesses
system.l2.ReadCleanReq_miss_rate::cpu.inst     0.959281                       # miss rate for ReadCleanReq accesses
system.l2.ReadCleanReq_miss_rate::total      0.959281                       # miss rate for ReadCleanReq accesses
system.l2.ReadSharedReq_miss_rate::cpu.data     0.003517                       # miss rate for ReadSharedReq accesses
system.l2.ReadSharedReq_miss_rate::total     0.003517                       # miss rate for ReadSharedReq accesses
system.l2.demand_miss_rate::cpu.inst         0.959281                       # miss rate for demand accesses
system.l2.demand_miss_rate::cpu.data         0.973954                       # miss rate for demand accesses
system.l2.demand_miss_rate::total            0.973952                       # miss rate for demand accesses
system.l2.overall_miss_rate::cpu.inst        0.959281                       # miss rate for overall accesses
system.l2.overall_miss_rate::cpu.data        0.973954                       # miss rate for overall accesses
system.l2.overall_miss_rate::total           0.973952                       # miss rate for overall accesses
system.l2.ReadExReq_avg_miss_latency::cpu.data 78957.808098                       # average ReadExReq miss latency
system.l2.ReadExReq_avg_miss_latency::total 78957.808098                       # average ReadExReq miss latency
system.l2.ReadCleanReq_avg_miss_latency::cpu.inst 78729.712859                       # average ReadCleanReq miss latency
system.l2.ReadCleanReq_avg_miss_latency::total 78729.712859                       # average ReadCleanReq miss latency
system.l2.ReadSharedReq_avg_miss_latency::cpu.data 84951.038576                       # average ReadSharedReq miss latency
system.l2.ReadSharedReq_avg_miss_latency::total 84951.038576                       # average ReadSharedReq miss latency
system.l2.demand_avg_miss_latency::cpu.inst 78729.712859                       # average overall miss latency
system.l2.demand_avg_miss_latency::cpu.data 78958.119693                       # average overall miss latency
system.l2.demand_avg_miss_latency::total 78958.091471                       # average overall miss latency
system.l2.overall_avg_miss_latency::cpu.inst 78729.712859                       # average overall miss latency
system.l2.overall_avg_miss_latency::cpu.data 78958.119693                       # average overall miss latency
system.l2.overall_avg_miss_latency::total 78958.091471                       # average overall miss latency
system.l2.blocked_cycles::no_mshrs                  0                       # number of cycles access was blocked
system.l2.blocked_cycles::no_targets                0                       # number of cycles access was blocked
system.l2.blocked::no_mshrs                         0                       # number of cycles access was blocked
system.l2.blocked::no_targets                       0                       # number of cycles access was blocked
system.l2.avg_blocked_cycles::no_mshrs            nan                       # average number of cycles each access was blocked
system.l2.avg_blocked_cycles::no_targets          nan                       # average number of cycles each access was blocked
system.l2.fast_writes                               0                       # number of fast writes performed
system.l2.cache_copies                              0                       # number of cache copies performed
system.l2.writebacks::writebacks              6465230                       # number of writebacks
system.l2.writebacks::total                   6465230                       # number of writebacks
system.l2.ReadExReq_mshr_misses::cpu.data      6481540                       # number of ReadExReq MSHR misses
system.l2.ReadExReq_mshr_misses::total        6481540                       # number of ReadExReq MSHR misses
system.l2.ReadCleanReq_mshr_misses::cpu.inst          801                       # number of ReadCleanReq MSHR misses
system.l2.ReadCleanReq_mshr_misses::total          801                       # number of ReadCleanReq MSHR misses
system.l2.ReadSharedReq_mshr_misses::cpu.data          337                       # number of ReadSharedReq MSHR misses
system.l2.ReadSharedReq_mshr_misses::total          337                       # number of ReadSharedReq MSHR misses
system.l2.demand_mshr_misses::cpu.inst            801                       # number of demand (read+write) MSHR misses
system.l2.demand_mshr_misses::cpu.data        6481877                       # number of demand (read+write) MSHR misses
system.l2.demand_mshr_misses::total           6482678                       # number of demand (read+write) MSHR misses
system.l2.overall_mshr_misses::cpu.inst           801                       # number of overall MSHR misses
system.l2.overall_mshr_misses::cpu.data       6481877                       # number of overall MSHR misses
system.l2.overall_mshr_misses::total          6482678                       # number of overall MSHR misses
system.l2.ReadExReq_mshr_miss_latency::cpu.data 446952791500                       # number of ReadExReq MSHR miss cycles
system.l2.ReadExReq_mshr_miss_latency::total 446952791500                       # number of ReadExReq MSHR miss cycles
system.l2.ReadCleanReq_mshr_miss_latency::cpu.inst     55052500                       # number of ReadCleanReq MSHR miss cycles
system.l2.ReadCleanReq_mshr_miss_latency::total     55052500                       # number of ReadCleanReq MSHR miss cycles
system.l2.ReadSharedReq_mshr_miss_latency::cpu.data     25258500                       # number of ReadSharedReq MSHR miss cycles
system.l2.ReadSharedReq_mshr_miss_latency::total     25258500                       # number of ReadSharedReq MSHR miss cycles
system.l2.demand_mshr_miss_latency::cpu.inst     55052500                       # number of demand (read+write) MSHR miss cycles
system.l2.demand_mshr_miss_latency::cpu.data 446978050000                       # number of demand (read+write) MSHR miss cycles
system.l2.demand_mshr_miss_latency::total 447033102500                       # number of demand (read+write) MSHR miss cycles
system.l2.overall_mshr_miss_latency::cpu.inst     55052500                       # number of overall MSHR miss cycles
system.l2.overall_mshr_miss_latency::cpu.data 446978050000                       # number of overall MSHR miss cycles
system.l2.overall_mshr_miss_latency::total 447033102500                       # number of overall MSHR miss cycles
system.l2.ReadExReq_mshr_miss_rate::cpu.data     0.988131                       # mshr miss rate for ReadExReq accesses
system.l2.ReadExReq_mshr_miss_rate::total     0.988131                       # mshr miss rate for ReadExReq accesses
system.l2.ReadCleanReq_mshr_miss_rate::cpu.inst     0.959281                       # mshr miss rate for ReadCleanReq accesses
system.l2.ReadCleanReq_mshr_miss_rate::total     0.959281                       # mshr miss rate for ReadCleanReq accesses
system.l2.ReadSharedReq_mshr_miss_rate::cpu.data     0.003517                       # mshr miss rate for ReadSharedReq accesses
system.l2.ReadSharedReq_mshr_miss_rate::total     0.003517                       # mshr miss rate for ReadSharedReq accesses
system.l2.demand_mshr_miss_rate::cpu.inst     0.959281                       # mshr miss rate for demand accesses
system.l2.demand_mshr_miss_rate::cpu.data     0.973954                       # mshr miss rate for demand accesses
system.l2.demand_mshr_miss_rate::total       0.973952                       # mshr miss rate for demand accesses
system.l2.overall_mshr_miss_rate::cpu.inst     0.959281                       # mshr miss rate for overall accesses
system.l2.overall_mshr_miss_rate::cpu.data     0.973954                       # mshr miss rate for overall accesses
system.l2.overall_mshr_miss_rate::total      0.973952                       # mshr miss rate for overall accesses
system.l2.ReadExReq_avg_mshr_miss_latency::cpu.data 68957.808098                       # average ReadExReq mshr miss latency
system.l2.ReadExReq_avg_mshr_miss_latency::total 68957.808098                       # average ReadExReq mshr miss latency
system.l2.ReadCleanReq_avg_mshr_miss_latency::cpu.inst 68729.712859                       # average ReadCleanReq mshr miss latency
system.l2.ReadCleanReq_avg_mshr_miss_latency::total 68729.712859                       # average ReadCleanReq mshr miss latency
system.l2.ReadSharedReq_avg_mshr_miss_latency::cpu.data 74951.038576                       # average ReadSharedReq mshr miss latency
system.l2.ReadSharedReq_avg_mshr_miss_latency::total 74951.038576                       # average ReadSharedReq mshr miss latency
system.l2.demand_avg_mshr_miss_latency::cpu.inst 68729.712859                       # average overall mshr miss latency
system.l2.demand_avg_mshr_miss_latency::cpu.data 68958.119693                       # average overall mshr miss latency
system.l2.demand_avg_mshr_miss_latency::total 68958.091471                       # average overall mshr miss latency
system.l2.overall_avg_mshr_miss_latency::cpu.inst 68729.712859                       # average overall mshr miss latency
system.l2.overall_avg_mshr_miss_latency::cpu.data 68958.119693                       # average overall mshr miss latency
system.l2.overall_avg_mshr_miss_latency::total 68958.091471                       # average overall mshr miss latency
system.l2.no_allocate_misses                        0                       # Number of misses that were no-allocate
system.membus.trans_dist::ReadResp               1138                       # Transaction distribution
system.membus.trans_dist::WritebackDirty      6465230                       # Transaction distribution
system.membus.trans_dist::CleanEvict              294                       # Transaction distribution
system.membus.trans_dist::ReadExReq           6481540                       # Transaction distribution
system.membus.trans_dist::ReadExResp          6481540                       # Transaction distribution
system.membus.trans_dist::ReadSharedReq          1138                       # Transaction distribution
system.membus.pkt_count_system.l2.mem_side::system.mem_ctrls.port     19430880                       # Packet count per connected master and slave (bytes)
system.membus.pkt_count_system.l2.mem_side::total     19430880                       # Packet count per connected master and slave (bytes)
system.membus.pkt_count::total               19430880                       # Packet count per connected master and slave (bytes)
system.membus.pkt_size_system.l2.mem_side::system.mem_ctrls.port    828666112                       # Cumulative packet size per connected master and slave (bytes)
system.membus.pkt_size_system.l2.mem_side::total    828666112                       # Cumulative packet size per connected master and slave (bytes)
system.membus.pkt_size::total               828666112                       # Cumulative packet size per connected master and slave (bytes)
system.membus.snoops                                0                       # Total snoops (count)
system.membus.snoop_fanout::samples          12948202                       # Request fanout histogram
system.membus.snoop_fanout::mean                    0                       # Request fanout histogram
system.membus.snoop_fanout::stdev                   0                       # Request fanout histogram
system.membus.snoop_fanout::underflows              0      0.00%      0.00% # Request fanout histogram
system.membus.snoop_fanout::0                12948202    100.00%    100.00% # Request fanout histogram
system.membus.snoop_fanout::1                       0      0.00%    100.00% # Request fanout histogram
system.membus.snoop_fanout::overflows               0      0.00%    100.00% # Request fanout histogram
system.membus.snoop_fanout::min_value               0                       # Request fanout histogram
system.membus.snoop_fanout::max_value               0                       # Request fanout histogram
system.membus.snoop_fanout::total            12948202                       # Request fanout histogram
system.membus.reqLayer2.occupancy         38809140500                       # Layer occupancy (ticks)
system.membus.reqLayer2.utilization               6.0                       # Layer utilization (%)
system.membus.respLayer1.occupancy        34098439500                       # Layer occupancy (ticks)
system.membus.respLayer1.utilization              5.3                       # Layer utilization (%)
system.tol2bus.snoop_filter.tot_requests     13311324                       # Total number of requests made to the snoop filter.
system.tol2bus.snoop_filter.hit_single_requests      6655269                       # Number of requests hitting in the snoop filter with a single holder of the requested data.
system.tol2bus.snoop_filter.hit_multi_requests            0                       # Number of requests hitting in the snoop filter with multiple (>1) holders of the requested data.
system.tol2bus.snoop_filter.tot_snoops            800                       # Total number of snoops made to the snoop filter.
system.tol2bus.snoop_filter.hit_single_snoops          800                       # Number of snoops hitting in the snoop filter with a single holder of the requested data.
system.tol2bus.snoop_filter.hit_multi_snoops            0                       # Number of snoops hitting in the snoop filter with multiple (>1) holders of the requested data.
system.tol2bus.trans_dist::ReadResp             96663                       # Transaction distribution
system.tol2bus.trans_dist::WritebackDirty     13031747                       # Transaction distribution
system.tol2bus.trans_dist::WritebackClean           65                       # Transaction distribution
system.tol2bus.trans_dist::CleanEvict           89781                       # Transaction distribution
system.tol2bus.trans_dist::ReadExReq          6559392                       # Transaction distribution
system.tol2bus.trans_dist::ReadExResp         6559392                       # Transaction distribution
system.tol2bus.trans_dist::ReadCleanReq           835                       # Transaction distribution
system.tol2bus.trans_dist::ReadSharedReq        95828                       # Transaction distribution
system.tol2bus.pkt_count_system.cpu.icache.mem_side::system.l2.cpu_side         1735                       # Packet count per connected master and slave (bytes)
system.tol2bus.pkt_count_system.cpu.dcache.mem_side::system.l2.cpu_side     19965644                       # Packet count per connected master and slave (bytes)
system.tol2bus.pkt_count::total              19967379                       # Packet count per connected master and slave (bytes)
system.tol2bus.pkt_size_system.cpu.icache.mem_side::system.l2.cpu_side        57600                       # Cumulative packet size per connected master and slave (bytes)
system.tol2bus.pkt_size_system.cpu.dcache.mem_side::system.l2.cpu_side    846191168                       # Cumulative packet size per connected master and slave (bytes)
system.tol2bus.pkt_size::total              846248768                       # Cumulative packet size per connected master and slave (bytes)
system.tol2bus.snoops                         6466324                       # Total snoops (count)
system.tol2bus.snoop_fanout::samples         13122379                       # Request fanout histogram
system.tol2bus.snoop_fanout::mean            0.000061                       # Request fanout histogram
system.tol2bus.snoop_fanout::stdev           0.007808                       # Request fanout histogram
system.tol2bus.snoop_fanout::underflows             0      0.00%      0.00% # Request fanout histogram
system.tol2bus.snoop_fanout::0               13121579     99.99%     99.99% # Request fanout histogram
system.tol2bus.snoop_fanout::1                    800      0.01%    100.00% # Request fanout histogram
system.tol2bus.snoop_fanout::2                      0      0.00%    100.00% # Request fanout histogram
system.tol2bus.snoop_fanout::3                      0      0.00%    100.00% # Request fanout histogram
system.tol2bus.snoop_fanout::4                      0      0.00%    100.00% # Request fanout histogram
system.tol2bus.snoop_fanout::overflows              0      0.00%    100.00% # Request fanout histogram
system.tol2bus.snoop_fanout::min_value              0                       # Request fanout histogram
system.tol2bus.snoop_fanout::max_value              1                       # Request fanout histogram
system.tol2bus.snoop_fanout::total           13122379                       # Request fanout histogram
system.tol2bus.reqLayer0.occupancy        13222244000                       # Layer occupancy (ticks)
system.tol2bus.reqLayer0.utilization              2.0                       # Layer utilization (%)
system.tol2bus.respLayer0.occupancy           1252500                       # Layer occupancy (ticks)
system.tol2bus.respLayer0.utilization             0.0                       # Layer utilization (%)
system.tol2bus.respLayer1.occupancy        9982830000                       # Layer occupancy (ticks)
system.tol2bus.respLayer1.utilization             1.5                       # Layer utilization (%)

---------- End Simulation Statistics   ----------
