
---------- Begin Simulation Statistics ----------
sim_seconds                                  0.645733                       # Number of seconds simulated
sim_ticks                                645732854500                       # Number of ticks simulated
final_tick                               645732854500                       # Number of ticks from beginning of simulation (restored from checkpoints and never reset)
sim_freq                                 1000000000000                       # Frequency of simulated ticks
host_inst_rate                                 105662                       # Simulator instruction rate (inst/s)
host_op_rate                                   202831                       # Simulator op (including micro ops) rate (op/s)
host_tick_rate                             1364583479                       # Simulator tick rate (ticks/s)
host_mem_usage                                 833896                       # Number of bytes of host memory used
host_seconds                                   473.21                       # Real time elapsed on the host
sim_insts                                    50000000                       # Number of instructions simulated
sim_ops                                      95981250                       # Number of ops (including micro ops) simulated
system.voltage_domain.voltage                       1                       # Voltage in Volts
system.clk_domain.clock                          1000                       # Clock period in ticks
system.mem_ctrls.bytes_read::cpu.inst           51776                       # Number of bytes read from this memory
system.mem_ctrls.bytes_read::cpu.data       414840064                       # Number of bytes read from this memory
system.mem_ctrls.bytes_read::total          414891840                       # Number of bytes read from this memory
system.mem_ctrls.bytes_inst_read::cpu.inst        51776                       # Number of instructions bytes read from this memory
system.mem_ctrls.bytes_inst_read::total         51776                       # Number of instructions bytes read from this memory
system.mem_ctrls.bytes_written::writebacks    413774656                       # Number of bytes written to this memory
system.mem_ctrls.bytes_written::total       413774656                       # Number of bytes written to this memory
system.mem_ctrls.num_reads::cpu.inst              809                       # Number of read requests responded to by this memory
system.mem_ctrls.num_reads::cpu.data          6481876                       # Number of read requests responded to by this memory
system.mem_ctrls.num_reads::total             6482685                       # Number of read requests responded to by this memory
system.mem_ctrls.num_writes::writebacks       6465229                       # Number of write requests responded to by this memory
system.mem_ctrls.num_writes::total            6465229                       # Number of write requests responded to by this memory
system.mem_ctrls.bw_read::cpu.inst              80182                       # Total read bandwidth from this memory (bytes/s)
system.mem_ctrls.bw_read::cpu.data          642432952                       # Total read bandwidth from this memory (bytes/s)
system.mem_ctrls.bw_read::total             642513134                       # Total read bandwidth from this memory (bytes/s)
system.mem_ctrls.bw_inst_read::cpu.inst         80182                       # Instruction read bandwidth from this memory (bytes/s)
system.mem_ctrls.bw_inst_read::total            80182                       # Instruction read bandwidth from this memory (bytes/s)
system.mem_ctrls.bw_write::writebacks       640783031                       # Write bandwidth from this memory (bytes/s)
system.mem_ctrls.bw_write::total            640783031                       # Write bandwidth from this memory (bytes/s)
system.mem_ctrls.bw_total::writebacks       640783031                       # Total bandwidth to/from this memory (bytes/s)
system.mem_ctrls.bw_total::cpu.inst             80182                       # Total bandwidth to/from this memory (bytes/s)
system.mem_ctrls.bw_total::cpu.data         642432952                       # Total bandwidth to/from this memory (bytes/s)
system.mem_ctrls.bw_total::total           1283296165                       # Total bandwidth to/from this memory (bytes/s)
system.mem_ctrls.readReqs                     6482685                       # Number of read requests accepted
system.mem_ctrls.writeReqs                    6465229                       # Number of write requests accepted
system.mem_ctrls.readBursts                   6482685                       # Number of DRAM read bursts, including those serviced by the write queue
system.mem_ctrls.writeBursts                  6465229                       # Number of DRAM write bursts, including those merged in the write queue
system.mem_ctrls.bytesReadDRAM              414891840                       # Total number of bytes read from DRAM
system.mem_ctrls.bytesReadWrQ                       0                       # Total number of bytes read from write queue
system.mem_ctrls.bytesWritten               413773184                       # Total number of bytes written to DRAM
system.mem_ctrls.bytesReadSys               414891840                       # Total read bytes from the system interface side
system.mem_ctrls.bytesWrittenSys            413774656                       # Total written bytes from the system interface side
system.mem_ctrls.servicedByWrQ                      0                       # Number of DRAM read bursts serviced by the write queue
system.mem_ctrls.mergedWrBursts                     0                       # Number of DRAM write bursts merged with an existing one
system.mem_ctrls.neitherReadNorWriteReqs          408                       # Number of requests that are neither read nor write
system.mem_ctrls.perBankRdBursts::0            405123                       # Per bank write bursts
system.mem_ctrls.perBankRdBursts::1            405056                       # Per bank write bursts
system.mem_ctrls.perBankRdBursts::2            405044                       # Per bank write bursts
system.mem_ctrls.perBankRdBursts::3            405057                       # Per bank write bursts
system.mem_ctrls.perBankRdBursts::4            405157                       # Per bank write bursts
system.mem_ctrls.perBankRdBursts::5            405098                       # Per bank write bursts
system.mem_ctrls.perBankRdBursts::6            404913                       # Per bank write bursts
system.mem_ctrls.perBankRdBursts::7            405007                       # Per bank write bursts
system.mem_ctrls.perBankRdBursts::8            405005                       # Per bank write bursts
system.mem_ctrls.perBankRdBursts::9            405137                       # Per bank write bursts
system.mem_ctrls.perBankRdBursts::10           405258                       # Per bank write bursts
system.mem_ctrls.perBankRdBursts::11           405381                       # Per bank write bursts
system.mem_ctrls.perBankRdBursts::12           405354                       # Per bank write bursts
system.mem_ctrls.perBankRdBursts::13           405375                       # Per bank write bursts
system.mem_ctrls.perBankRdBursts::14           405357                       # Per bank write bursts
system.mem_ctrls.perBankRdBursts::15           405363                       # Per bank write bursts
system.mem_ctrls.perBankWrBursts::0            403968                       # Per bank write bursts
system.mem_ctrls.perBankWrBursts::1            403979                       # Per bank write bursts
system.mem_ctrls.perBankWrBursts::2            403994                       # Per bank write bursts
system.mem_ctrls.perBankWrBursts::3            403934                       # Per bank write bursts
system.mem_ctrls.perBankWrBursts::4            404012                       # Per bank write bursts
system.mem_ctrls.perBankWrBursts::5            403964                       # Per bank write bursts
system.mem_ctrls.perBankWrBursts::6            403848                       # Per bank write bursts
system.mem_ctrls.perBankWrBursts::7            403887                       # Per bank write bursts
system.mem_ctrls.perBankWrBursts::8            403954                       # Per bank write bursts
system.mem_ctrls.perBankWrBursts::9            404047                       # Per bank write bursts
system.mem_ctrls.perBankWrBursts::10           404170                       # Per bank write bursts
system.mem_ctrls.perBankWrBursts::11           404323                       # Per bank write bursts
system.mem_ctrls.perBankWrBursts::12           404297                       # Per bank write bursts
system.mem_ctrls.perBankWrBursts::13           404286                       # Per bank write bursts
system.mem_ctrls.perBankWrBursts::14           404291                       # Per bank write bursts
system.mem_ctrls.perBankWrBursts::15           404252                       # Per bank write bursts
system.mem_ctrls.numRdRetry                         0                       # Number of times read queue was full causing retry
system.mem_ctrls.numWrRetry                         0                       # Number of times write queue was full causing retry
system.mem_ctrls.totGap                  645732839500                       # Total gap between requests
system.mem_ctrls.readPktSize::0                     0                       # Read request sizes (log2)
system.mem_ctrls.readPktSize::1                     0                       # Read request sizes (log2)
system.mem_ctrls.readPktSize::2                     0                       # Read request sizes (log2)
system.mem_ctrls.readPktSize::3                     0                       # Read request sizes (log2)
system.mem_ctrls.readPktSize::4                     0                       # Read request sizes (log2)
system.mem_ctrls.readPktSize::5                     0                       # Read request sizes (log2)
system.mem_ctrls.readPktSize::6               6482685                       # Read request sizes (log2)
system.mem_ctrls.writePktSize::0                    0                       # Write request sizes (log2)
system.mem_ctrls.writePktSize::1                    0                       # Write request sizes (log2)
system.mem_ctrls.writePktSize::2                    0                       # Write request sizes (log2)
system.mem_ctrls.writePktSize::3                    0                       # Write request sizes (log2)
system.mem_ctrls.writePktSize::4                    0                       # Write request sizes (log2)
system.mem_ctrls.writePktSize::5                    0                       # Write request sizes (log2)
system.mem_ctrls.writePktSize::6              6465229                       # Write request sizes (log2)
system.mem_ctrls.rdQLenPdf::0                 6482684                       # What read queue length does an incoming req see
system.mem_ctrls.rdQLenPdf::1                       1                       # What read queue length does an incoming req see
system.mem_ctrls.rdQLenPdf::2                       0                       # What read queue length does an incoming req see
system.mem_ctrls.rdQLenPdf::3                       0                       # What read queue length does an incoming req see
system.mem_ctrls.rdQLenPdf::4                       0                       # What read queue length does an incoming req see
system.mem_ctrls.rdQLenPdf::5                       0                       # What read queue length does an incoming req see
system.mem_ctrls.rdQLenPdf::6                       0                       # What read queue length does an incoming req see
system.mem_ctrls.rdQLenPdf::7                       0                       # What read queue length does an incoming req see
system.mem_ctrls.rdQLenPdf::8                       0                       # What read queue length does an incoming req see
system.mem_ctrls.rdQLenPdf::9                       0                       # What read queue length does an incoming req see
system.mem_ctrls.rdQLenPdf::10                      0                       # What read queue length does an incoming req see
system.mem_ctrls.rdQLenPdf::11                      0                       # What read queue length does an incoming req see
system.mem_ctrls.rdQLenPdf::12                      0                       # What read queue length does an incoming req see
system.mem_ctrls.rdQLenPdf::13                      0                       # What read queue length does an incoming req see
system.mem_ctrls.rdQLenPdf::14                      0                       # What read queue length does an incoming req see
system.mem_ctrls.rdQLenPdf::15                      0                       # What read queue length does an incoming req see
system.mem_ctrls.rdQLenPdf::16                      0                       # What read queue length does an incoming req see
system.mem_ctrls.rdQLenPdf::17                      0                       # What read queue length does an incoming req see
system.mem_ctrls.rdQLenPdf::18                      0                       # What read queue length does an incoming req see
system.mem_ctrls.rdQLenPdf::19                      0                       # What read queue length does an incoming req see
system.mem_ctrls.rdQLenPdf::20                      0                       # What read queue length does an incoming req see
system.mem_ctrls.rdQLenPdf::21                      0                       # What read queue length does an incoming req see
system.mem_ctrls.rdQLenPdf::22                      0                       # What read queue length does an incoming req see
system.mem_ctrls.rdQLenPdf::23                      0                       # What read queue length does an incoming req see
system.mem_ctrls.rdQLenPdf::24                      0                       # What read queue length does an incoming req see
system.mem_ctrls.rdQLenPdf::25                      0                       # What read queue length does an incoming req see
system.mem_ctrls.rdQLenPdf::26                      0                       # What read queue length does an incoming req see
system.mem_ctrls.rdQLenPdf::27                      0                       # What read queue length does an incoming req see
system.mem_ctrls.rdQLenPdf::28                      0                       # What read queue length does an incoming req see
system.mem_ctrls.rdQLenPdf::29                      0                       # What read queue length does an incoming req see
system.mem_ctrls.rdQLenPdf::30                      0                       # What read queue length does an incoming req see
system.mem_ctrls.rdQLenPdf::31                      0                       # What read queue length does an incoming req see
system.mem_ctrls.wrQLenPdf::0                       1                       # What write queue length does an incoming req see
system.mem_ctrls.wrQLenPdf::1                       1                       # What write queue length does an incoming req see
system.mem_ctrls.wrQLenPdf::2                       1                       # What write queue length does an incoming req see
system.mem_ctrls.wrQLenPdf::3                       1                       # What write queue length does an incoming req see
system.mem_ctrls.wrQLenPdf::4                       1                       # What write queue length does an incoming req see
system.mem_ctrls.wrQLenPdf::5                       1                       # What write queue length does an incoming req see
system.mem_ctrls.wrQLenPdf::6                       1                       # What write queue length does an incoming req see
system.mem_ctrls.wrQLenPdf::7                       1                       # What write queue length does an incoming req see
system.mem_ctrls.wrQLenPdf::8                       1                       # What write queue length does an incoming req see
system.mem_ctrls.wrQLenPdf::9                       1                       # What write queue length does an incoming req see
system.mem_ctrls.wrQLenPdf::10                      1                       # What write queue length does an incoming req see
system.mem_ctrls.wrQLenPdf::11                      1                       # What write queue length does an incoming req see
system.mem_ctrls.wrQLenPdf::12                      1                       # What write queue length does an incoming req see
system.mem_ctrls.wrQLenPdf::13                      1                       # What write queue length does an incoming req see
system.mem_ctrls.wrQLenPdf::14                      1                       # What write queue length does an incoming req see
system.mem_ctrls.wrQLenPdf::15                   1011                       # What write queue length does an incoming req see
system.mem_ctrls.wrQLenPdf::16                   1014                       # What write queue length does an incoming req see
system.mem_ctrls.wrQLenPdf::17                 402266                       # What write queue length does an incoming req see
system.mem_ctrls.wrQLenPdf::18                 403889                       # What write queue length does an incoming req see
system.mem_ctrls.wrQLenPdf::19                 403888                       # What write queue length does an incoming req see
system.mem_ctrls.wrQLenPdf::20                 403891                       # What write queue length does an incoming req see
system.mem_ctrls.wrQLenPdf::21                 403890                       # What write queue length does an incoming req see
system.mem_ctrls.wrQLenPdf::22                 403889                       # What write queue length does an incoming req see
system.mem_ctrls.wrQLenPdf::23                 403887                       # What write queue length does an incoming req see
system.mem_ctrls.wrQLenPdf::24                 403891                       # What write queue length does an incoming req see
system.mem_ctrls.wrQLenPdf::25                 406487                       # What write queue length does an incoming req see
system.mem_ctrls.wrQLenPdf::26                 403886                       # What write queue length does an incoming req see
system.mem_ctrls.wrQLenPdf::27                 403890                       # What write queue length does an incoming req see
system.mem_ctrls.wrQLenPdf::28                 403890                       # What write queue length does an incoming req see
system.mem_ctrls.wrQLenPdf::29                 403887                       # What write queue length does an incoming req see
system.mem_ctrls.wrQLenPdf::30                 403886                       # What write queue length does an incoming req see
system.mem_ctrls.wrQLenPdf::31                 403886                       # What write queue length does an incoming req see
system.mem_ctrls.wrQLenPdf::32                 403886                       # What write queue length does an incoming req see
system.mem_ctrls.wrQLenPdf::33                      0                       # What write queue length does an incoming req see
system.mem_ctrls.wrQLenPdf::34                      0                       # What write queue length does an incoming req see
system.mem_ctrls.wrQLenPdf::35                      0                       # What write queue length does an incoming req see
system.mem_ctrls.wrQLenPdf::36                      0                       # What write queue length does an incoming req see
system.mem_ctrls.wrQLenPdf::37                      0                       # What write queue length does an incoming req see
system.mem_ctrls.wrQLenPdf::38                      0                       # What write queue length does an incoming req see
system.mem_ctrls.wrQLenPdf::39                      0                       # What write queue length does an incoming req see
system.mem_ctrls.wrQLenPdf::40                      0                       # What write queue length does an incoming req see
system.mem_ctrls.wrQLenPdf::41                      0                       # What write queue length does an incoming req see
system.mem_ctrls.wrQLenPdf::42                      0                       # What write queue length does an incoming req see
system.mem_ctrls.wrQLenPdf::43                      0                       # What write queue length does an incoming req see
system.mem_ctrls.wrQLenPdf::44                      0                       # What write queue length does an incoming req see
system.mem_ctrls.wrQLenPdf::45                      0                       # What write queue length does an incoming req see
system.mem_ctrls.wrQLenPdf::46                      0                       # What write queue length does an incoming req see
system.mem_ctrls.wrQLenPdf::47                      0                       # What write queue length does an incoming req see
system.mem_ctrls.wrQLenPdf::48                      0                       # What write queue length does an incoming req see
system.mem_ctrls.wrQLenPdf::49                      0                       # What write queue length does an incoming req see
system.mem_ctrls.wrQLenPdf::50                      0                       # What write queue length does an incoming req see
system.mem_ctrls.wrQLenPdf::51                      0                       # What write queue length does an incoming req see
system.mem_ctrls.wrQLenPdf::52                      0                       # What write queue length does an incoming req see
system.mem_ctrls.wrQLenPdf::53                      0                       # What write queue length does an incoming req see
system.mem_ctrls.wrQLenPdf::54                      0                       # What write queue length does an incoming req see
system.mem_ctrls.wrQLenPdf::55                      0                       # What write queue length does an incoming req see
system.mem_ctrls.wrQLenPdf::56                      0                       # What write queue length does an incoming req see
system.mem_ctrls.wrQLenPdf::57                      0                       # What write queue length does an incoming req see
system.mem_ctrls.wrQLenPdf::58                      0                       # What write queue length does an incoming req see
system.mem_ctrls.wrQLenPdf::59                      0                       # What write queue length does an incoming req see
system.mem_ctrls.wrQLenPdf::60                      0                       # What write queue length does an incoming req see
system.mem_ctrls.wrQLenPdf::61                      0                       # What write queue length does an incoming req see
system.mem_ctrls.wrQLenPdf::62                      0                       # What write queue length does an incoming req see
system.mem_ctrls.wrQLenPdf::63                      0                       # What write queue length does an incoming req see
system.mem_ctrls.bytesPerActivate::samples       978432                       # Bytes accessed per row activation
system.mem_ctrls.bytesPerActivate::mean    846.930665                       # Bytes accessed per row activation
system.mem_ctrls.bytesPerActivate::gmean   738.968968                       # Bytes accessed per row activation
system.mem_ctrls.bytesPerActivate::stdev   297.982531                       # Bytes accessed per row activation
system.mem_ctrls.bytesPerActivate::0-127        32072      3.28%      3.28% # Bytes accessed per row activation
system.mem_ctrls.bytesPerActivate::128-255        38828      3.97%      7.25% # Bytes accessed per row activation
system.mem_ctrls.bytesPerActivate::256-383        47532      4.86%     12.10% # Bytes accessed per row activation
system.mem_ctrls.bytesPerActivate::384-511        43997      4.50%     16.60% # Bytes accessed per row activation
system.mem_ctrls.bytesPerActivate::512-639        35405      3.62%     20.22% # Bytes accessed per row activation
system.mem_ctrls.bytesPerActivate::640-767        53649      5.48%     25.70% # Bytes accessed per row activation
system.mem_ctrls.bytesPerActivate::768-895        33542      3.43%     29.13% # Bytes accessed per row activation
system.mem_ctrls.bytesPerActivate::896-1023        43031      4.40%     33.53% # Bytes accessed per row activation
system.mem_ctrls.bytesPerActivate::1024-1151       650376     66.47%    100.00% # Bytes accessed per row activation
system.mem_ctrls.bytesPerActivate::total       978432                       # Bytes accessed per row activation
system.mem_ctrls.rdPerTurnAround::samples       403886                       # Reads before turning the bus around for writes
system.mem_ctrls.rdPerTurnAround::mean      16.050764                       # Reads before turning the bus around for writes
system.mem_ctrls.rdPerTurnAround::gmean     16.010613                       # Reads before turning the bus around for writes
system.mem_ctrls.rdPerTurnAround::stdev     11.855676                       # Reads before turning the bus around for writes
system.mem_ctrls.rdPerTurnAround::0-255        403880    100.00%    100.00% # Reads before turning the bus around for writes
system.mem_ctrls.rdPerTurnAround::256-511            1      0.00%    100.00% # Reads before turning the bus around for writes
system.mem_ctrls.rdPerTurnAround::1024-1279            1      0.00%    100.00% # Reads before turning the bus around for writes
system.mem_ctrls.rdPerTurnAround::1792-2047            1      0.00%    100.00% # Reads before turning the bus around for writes
system.mem_ctrls.rdPerTurnAround::2304-2559            1      0.00%    100.00% # Reads before turning the bus around for writes
system.mem_ctrls.rdPerTurnAround::3584-3839            1      0.00%    100.00% # Reads before turning the bus around for writes
system.mem_ctrls.rdPerTurnAround::5632-5887            1      0.00%    100.00% # Reads before turning the bus around for writes
system.mem_ctrls.rdPerTurnAround::total        403886                       # Reads before turning the bus around for writes
system.mem_ctrls.wrPerTurnAround::samples       403886                       # Writes before turning the bus around for reads
system.mem_ctrls.wrPerTurnAround::mean      16.007502                       # Writes before turning the bus around for reads
system.mem_ctrls.wrPerTurnAround::gmean     16.006879                       # Writes before turning the bus around for reads
system.mem_ctrls.wrPerTurnAround::stdev      0.149668                       # Writes before turning the bus around for reads
system.mem_ctrls.wrPerTurnAround::16           402872     99.75%     99.75% # Writes before turning the bus around for reads
system.mem_ctrls.wrPerTurnAround::17                2      0.00%     99.75% # Writes before turning the bus around for reads
system.mem_ctrls.wrPerTurnAround::18                8      0.00%     99.75% # Writes before turning the bus around for reads
system.mem_ctrls.wrPerTurnAround::19             1004      0.25%    100.00% # Writes before turning the bus around for reads
system.mem_ctrls.wrPerTurnAround::total        403886                       # Writes before turning the bus around for reads
system.mem_ctrls.totQLat                  67733103750                       # Total ticks spent queuing
system.mem_ctrls.totMemAccLat            189283447500                       # Total ticks spent from burst creation until serviced by the DRAM
system.mem_ctrls.totBusLat                32413425000                       # Total ticks spent in databus transfers
system.mem_ctrls.avgQLat                     10448.31                       # Average queueing delay per DRAM burst
system.mem_ctrls.avgBusLat                    5000.00                       # Average bus latency per DRAM burst
system.mem_ctrls.avgMemAccLat                29198.31                       # Average memory access latency per DRAM burst
system.mem_ctrls.avgRdBW                       642.51                       # Average DRAM read bandwidth in MiByte/s
system.mem_ctrls.avgWrBW                       640.78                       # Average achieved write bandwidth in MiByte/s
system.mem_ctrls.avgRdBWSys                    642.51                       # Average system read bandwidth in MiByte/s
system.mem_ctrls.avgWrBWSys                    640.78                       # Average system write bandwidth in MiByte/s
system.mem_ctrls.peakBW                      12800.00                       # Theoretical peak bandwidth in MiByte/s
system.mem_ctrls.busUtil                        10.03                       # Data bus utilization in percentage
system.mem_ctrls.busUtilRead                     5.02                       # Data bus utilization in percentage for reads
system.mem_ctrls.busUtilWrite                    5.01                       # Data bus utilization in percentage for writes
system.mem_ctrls.avgRdQLen                       1.00                       # Average read queue length when enqueuing
system.mem_ctrls.avgWrQLen                      25.73                       # Average write queue length when enqueuing
system.mem_ctrls.readRowHits                  5954160                       # Number of row buffer hits during reads
system.mem_ctrls.writeRowHits                 6015298                       # Number of row buffer hits during writes
system.mem_ctrls.readRowHitRate                 91.85                       # Row buffer hit rate for reads
system.mem_ctrls.writeRowHitRate                93.04                       # Row buffer hit rate for writes
system.mem_ctrls.avgGap                      49871.57                       # Average gap between requests
system.mem_ctrls.pageHitRate                    92.44                       # Row buffer hit rate, read and write combined
system.mem_ctrls_0.actEnergy               3699228960                       # Energy for activate commands per rank (pJ)
system.mem_ctrls_0.preEnergy               2018428500                       # Energy for precharge commands per rank (pJ)
system.mem_ctrls_0.readEnergy             25275432000                       # Energy for read commands per rank (pJ)
system.mem_ctrls_0.writeEnergy            20940677280                       # Energy for write commands per rank (pJ)
system.mem_ctrls_0.refreshEnergy          42175897920                       # Energy for refresh commands per rank (pJ)
system.mem_ctrls_0.actBackEnergy         228804883605                       # Energy for active background per rank (pJ)
system.mem_ctrls_0.preBackEnergy         186731680500                       # Energy for precharge background per rank (pJ)
system.mem_ctrls_0.totalEnergy           509646228765                       # Total energy per rank (pJ)
system.mem_ctrls_0.averagePower            789.256498                       # Core power per rank (mW)
system.mem_ctrls_0.memoryStateTime::IDLE 305826370750                       # Time in different power states
system.mem_ctrls_0.memoryStateTime::REF   21562320000                       # Time in different power states
system.mem_ctrls_0.memoryStateTime::PRE_PDN            0                       # Time in different power states
system.mem_ctrls_0.memoryStateTime::ACT  318342776250                       # Time in different power states
system.mem_ctrls_0.memoryStateTime::ACT_PDN            0                       # Time in different power states
system.mem_ctrls_1.actEnergy               3697686720                       # Energy for activate commands per rank (pJ)
system.mem_ctrls_1.preEnergy               2017587000                       # Energy for precharge commands per rank (pJ)
system.mem_ctrls_1.readEnergy             25289238000                       # Energy for read commands per rank (pJ)
system.mem_ctrls_1.writeEnergy            20953650240                       # Energy for write commands per rank (pJ)
system.mem_ctrls_1.refreshEnergy          42175897920                       # Energy for refresh commands per rank (pJ)
system.mem_ctrls_1.actBackEnergy         229126018185                       # Energy for active background per rank (pJ)
system.mem_ctrls_1.preBackEnergy         186449991750                       # Energy for precharge background per rank (pJ)
system.mem_ctrls_1.totalEnergy           509710069815                       # Total energy per rank (pJ)
system.mem_ctrls_1.averagePower            789.355348                       # Core power per rank (mW)
system.mem_ctrls_1.memoryStateTime::IDLE 305369295500                       # Time in different power states
system.mem_ctrls_1.memoryStateTime::REF   21562320000                       # Time in different power states
system.mem_ctrls_1.memoryStateTime::PRE_PDN            0                       # Time in different power states
system.mem_ctrls_1.memoryStateTime::ACT  318800777500                       # Time in different power states
system.mem_ctrls_1.memoryStateTime::ACT_PDN            0                       # Time in different power states
system.cpu_voltage_domain.voltage                   1                       # Voltage in Volts
system.cpu_clk_domain.clock                       500                       # Clock period in ticks
system.cpu.apic_clk_domain.clock                 8000                       # Clock period in ticks
system.cpu.workload.num_syscalls                  108                       # Number of system calls
system.cpu.numCycles                       1291465709                       # number of cpu cycles simulated
system.cpu.numWorkItemsStarted                      0                       # number of work items this cpu started
system.cpu.numWorkItemsCompleted                    0                       # number of work items this cpu completed
system.cpu.committedInsts                    50000000                       # Number of instructions committed
system.cpu.committedOps                      95981250                       # Number of ops (including micro ops) committed
system.cpu.num_int_alu_accesses              95975785                       # Number of integer alu accesses
system.cpu.num_fp_alu_accesses               51833393                       # Number of float alu accesses
system.cpu.num_func_calls                        7602                       # number of times a function call or return occured
system.cpu.num_conditional_control_insts      6532565                       # number of instructions that are conditional controls
system.cpu.num_int_insts                     95975785                       # number of integer instructions
system.cpu.num_fp_insts                      51833393                       # number of float instructions
system.cpu.num_int_register_reads           219093278                       # number of times the integer registers were read
system.cpu.num_int_register_writes           37404612                       # number of times the integer registers were written
system.cpu.num_fp_register_reads             51836929                       # number of times the floating registers were read
system.cpu.num_fp_register_writes                4221                       # number of times the floating registers were written
system.cpu.num_cc_register_reads             34496135                       # number of times the CC registers were read
system.cpu.num_cc_register_writes            29304313                       # number of times the CC registers were written
system.cpu.num_mem_refs                      53378424                       # number of memory refs
system.cpu.num_load_insts                     1350127                       # Number of load instructions
system.cpu.num_store_insts                   52028297                       # Number of store instructions
system.cpu.num_idle_cycles                          0                       # Number of idle cycles
system.cpu.num_busy_cycles                 1291465709                       # Number of busy cycles
system.cpu.not_idle_fraction                        1                       # Percentage of non-idle cycles
system.cpu.idle_fraction                            0                       # Percentage of idle cycles
system.cpu.Branches                           6543945                       # Number of branches fetched
system.cpu.op_class::No_OpClass                  1613      0.00%      0.00% # Class of executed instruction
system.cpu.op_class::IntAlu                  42596797     44.38%     44.38% # Class of executed instruction
system.cpu.op_class::IntMult                      725      0.00%     44.38% # Class of executed instruction
system.cpu.op_class::IntDiv                        21      0.00%     44.38% # Class of executed instruction
system.cpu.op_class::FloatAdd                    3670      0.00%     44.39% # Class of executed instruction
system.cpu.op_class::FloatCmp                       0      0.00%     44.39% # Class of executed instruction
system.cpu.op_class::FloatCvt                       0      0.00%     44.39% # Class of executed instruction
system.cpu.op_class::FloatMult                      0      0.00%     44.39% # Class of executed instruction
system.cpu.op_class::FloatDiv                       0      0.00%     44.39% # Class of executed instruction
system.cpu.op_class::FloatSqrt                      0      0.00%     44.39% # Class of executed instruction
system.cpu.op_class::SimdAdd                        0      0.00%     44.39% # Class of executed instruction
system.cpu.op_class::SimdAddAcc                     0      0.00%     44.39% # Class of executed instruction
system.cpu.op_class::SimdAlu                        0      0.00%     44.39% # Class of executed instruction
system.cpu.op_class::SimdCmp                        0      0.00%     44.39% # Class of executed instruction
system.cpu.op_class::SimdCvt                        0      0.00%     44.39% # Class of executed instruction
system.cpu.op_class::SimdMisc                       0      0.00%     44.39% # Class of executed instruction
system.cpu.op_class::SimdMult                       0      0.00%     44.39% # Class of executed instruction
system.cpu.op_class::SimdMultAcc                    0      0.00%     44.39% # Class of executed instruction
system.cpu.op_class::SimdShift                      0      0.00%     44.39% # Class of executed instruction
system.cpu.op_class::SimdShiftAcc                   0      0.00%     44.39% # Class of executed instruction
system.cpu.op_class::SimdSqrt                       0      0.00%     44.39% # Class of executed instruction
system.cpu.op_class::SimdFloatAdd                   0      0.00%     44.39% # Class of executed instruction
system.cpu.op_class::SimdFloatAlu                   0      0.00%     44.39% # Class of executed instruction
system.cpu.op_class::SimdFloatCmp                   0      0.00%     44.39% # Class of executed instruction
system.cpu.op_class::SimdFloatCvt                   0      0.00%     44.39% # Class of executed instruction
system.cpu.op_class::SimdFloatDiv                   0      0.00%     44.39% # Class of executed instruction
system.cpu.op_class::SimdFloatMisc                  0      0.00%     44.39% # Class of executed instruction
system.cpu.op_class::SimdFloatMult                  0      0.00%     44.39% # Class of executed instruction
system.cpu.op_class::SimdFloatMultAcc               0      0.00%     44.39% # Class of executed instruction
system.cpu.op_class::SimdFloatSqrt                  0      0.00%     44.39% # Class of executed instruction
system.cpu.op_class::MemRead                  1350127      1.41%     45.79% # Class of executed instruction
system.cpu.op_class::MemWrite                52028297     54.21%    100.00% # Class of executed instruction
system.cpu.op_class::IprAccess                      0      0.00%    100.00% # Class of executed instruction
system.cpu.op_class::InstPrefetch                   0      0.00%    100.00% # Class of executed instruction
system.cpu.op_class::total                   95981250                       # Class of executed instruction
system.cpu.dcache.tags.replacements           6479845                       # number of replacements
system.cpu.dcache.tags.tagsinuse          2041.781341                       # Cycle average of tags in use
system.cpu.dcache.tags.total_refs            46896545                       # Total number of references to valid blocks.
system.cpu.dcache.tags.sampled_refs           6481893                       # Sample count of references to valid blocks.
system.cpu.dcache.tags.avg_refs              7.235008                       # Average number of references to valid blocks.
system.cpu.dcache.tags.warmup_cycle        7641223500                       # Cycle when the warmup percentage was hit.
system.cpu.dcache.tags.occ_blocks::cpu.data  2041.781341                       # Average occupied blocks per requestor
system.cpu.dcache.tags.occ_percent::cpu.data     0.996964                       # Average percentage of cache occupancy
system.cpu.dcache.tags.occ_percent::total     0.996964                       # Average percentage of cache occupancy
system.cpu.dcache.tags.occ_task_id_blocks::1024         2048                       # Occupied blocks per task id
system.cpu.dcache.tags.age_task_id_blocks_1024::0          102                       # Occupied blocks per task id
system.cpu.dcache.tags.age_task_id_blocks_1024::1          913                       # Occupied blocks per task id
system.cpu.dcache.tags.age_task_id_blocks_1024::2         1033                       # Occupied blocks per task id
system.cpu.dcache.tags.occ_task_id_percent::1024            1                       # Percentage of cache occupancy per task id
system.cpu.dcache.tags.tag_accesses         113238769                       # Number of tag accesses
system.cpu.dcache.tags.data_accesses        113238769                       # Number of data accesses
system.cpu.dcache.ReadReq_hits::cpu.data      1349786                       # number of ReadReq hits
system.cpu.dcache.ReadReq_hits::total         1349786                       # number of ReadReq hits
system.cpu.dcache.WriteReq_hits::cpu.data     45546759                       # number of WriteReq hits
system.cpu.dcache.WriteReq_hits::total       45546759                       # number of WriteReq hits
system.cpu.dcache.demand_hits::cpu.data      46896545                       # number of demand (read+write) hits
system.cpu.dcache.demand_hits::total         46896545                       # number of demand (read+write) hits
system.cpu.dcache.overall_hits::cpu.data     46896545                       # number of overall hits
system.cpu.dcache.overall_hits::total        46896545                       # number of overall hits
system.cpu.dcache.ReadReq_misses::cpu.data          345                       # number of ReadReq misses
system.cpu.dcache.ReadReq_misses::total           345                       # number of ReadReq misses
system.cpu.dcache.WriteReq_misses::cpu.data      6481548                       # number of WriteReq misses
system.cpu.dcache.WriteReq_misses::total      6481548                       # number of WriteReq misses
system.cpu.dcache.demand_misses::cpu.data      6481893                       # number of demand (read+write) misses
system.cpu.dcache.demand_misses::total        6481893                       # number of demand (read+write) misses
system.cpu.dcache.overall_misses::cpu.data      6481893                       # number of overall misses
system.cpu.dcache.overall_misses::total       6481893                       # number of overall misses
system.cpu.dcache.ReadReq_miss_latency::cpu.data     28518500                       # number of ReadReq miss cycles
system.cpu.dcache.ReadReq_miss_latency::total     28518500                       # number of ReadReq miss cycles
system.cpu.dcache.WriteReq_miss_latency::cpu.data 527973443000                       # number of WriteReq miss cycles
system.cpu.dcache.WriteReq_miss_latency::total 527973443000                       # number of WriteReq miss cycles
system.cpu.dcache.demand_miss_latency::cpu.data 528001961500                       # number of demand (read+write) miss cycles
system.cpu.dcache.demand_miss_latency::total 528001961500                       # number of demand (read+write) miss cycles
system.cpu.dcache.overall_miss_latency::cpu.data 528001961500                       # number of overall miss cycles
system.cpu.dcache.overall_miss_latency::total 528001961500                       # number of overall miss cycles
system.cpu.dcache.ReadReq_accesses::cpu.data      1350131                       # number of ReadReq accesses(hits+misses)
system.cpu.dcache.ReadReq_accesses::total      1350131                       # number of ReadReq accesses(hits+misses)
system.cpu.dcache.WriteReq_accesses::cpu.data     52028307                       # number of WriteReq accesses(hits+misses)
system.cpu.dcache.WriteReq_accesses::total     52028307                       # number of WriteReq accesses(hits+misses)
system.cpu.dcache.demand_accesses::cpu.data     53378438                       # number of demand (read+write) accesses
system.cpu.dcache.demand_accesses::total     53378438                       # number of demand (read+write) accesses
system.cpu.dcache.overall_accesses::cpu.data     53378438                       # number of overall (read+write) accesses
system.cpu.dcache.overall_accesses::total     53378438                       # number of overall (read+write) accesses
system.cpu.dcache.ReadReq_miss_rate::cpu.data     0.000256                       # miss rate for ReadReq accesses
system.cpu.dcache.ReadReq_miss_rate::total     0.000256                       # miss rate for ReadReq accesses
system.cpu.dcache.WriteReq_miss_rate::cpu.data     0.124577                       # miss rate for WriteReq accesses
system.cpu.dcache.WriteReq_miss_rate::total     0.124577                       # miss rate for WriteReq accesses
system.cpu.dcache.demand_miss_rate::cpu.data     0.121433                       # miss rate for demand accesses
system.cpu.dcache.demand_miss_rate::total     0.121433                       # miss rate for demand accesses
system.cpu.dcache.overall_miss_rate::cpu.data     0.121433                       # miss rate for overall accesses
system.cpu.dcache.overall_miss_rate::total     0.121433                       # miss rate for overall accesses
system.cpu.dcache.ReadReq_avg_miss_latency::cpu.data 82662.318841                       # average ReadReq miss latency
system.cpu.dcache.ReadReq_avg_miss_latency::total 82662.318841                       # average ReadReq miss latency
system.cpu.dcache.WriteReq_avg_miss_latency::cpu.data 81457.923786                       # average WriteReq miss latency
system.cpu.dcache.WriteReq_avg_miss_latency::total 81457.923786                       # average WriteReq miss latency
system.cpu.dcache.demand_avg_miss_latency::cpu.data 81457.987890                       # average overall miss latency
system.cpu.dcache.demand_avg_miss_latency::total 81457.987890                       # average overall miss latency
system.cpu.dcache.overall_avg_miss_latency::cpu.data 81457.987890                       # average overall miss latency
system.cpu.dcache.overall_avg_miss_latency::total 81457.987890                       # average overall miss latency
system.cpu.dcache.blocked_cycles::no_mshrs            0                       # number of cycles access was blocked
system.cpu.dcache.blocked_cycles::no_targets            0                       # number of cycles access was blocked
system.cpu.dcache.blocked::no_mshrs                 0                       # number of cycles access was blocked
system.cpu.dcache.blocked::no_targets               0                       # number of cycles access was blocked
system.cpu.dcache.avg_blocked_cycles::no_mshrs          nan                       # average number of cycles each access was blocked
system.cpu.dcache.avg_blocked_cycles::no_targets          nan                       # average number of cycles each access was blocked
system.cpu.dcache.fast_writes                       0                       # number of fast writes performed
system.cpu.dcache.cache_copies                      0                       # number of cache copies performed
system.cpu.dcache.writebacks::writebacks      6479582                       # number of writebacks
system.cpu.dcache.writebacks::total           6479582                       # number of writebacks
system.cpu.dcache.ReadReq_mshr_misses::cpu.data          345                       # number of ReadReq MSHR misses
system.cpu.dcache.ReadReq_mshr_misses::total          345                       # number of ReadReq MSHR misses
system.cpu.dcache.WriteReq_mshr_misses::cpu.data      6481548                       # number of WriteReq MSHR misses
system.cpu.dcache.WriteReq_mshr_misses::total      6481548                       # number of WriteReq MSHR misses
system.cpu.dcache.demand_mshr_misses::cpu.data      6481893                       # number of demand (read+write) MSHR misses
system.cpu.dcache.demand_mshr_misses::total      6481893                       # number of demand (read+write) MSHR misses
system.cpu.dcache.overall_mshr_misses::cpu.data      6481893                       # number of overall MSHR misses
system.cpu.dcache.overall_mshr_misses::total      6481893                       # number of overall MSHR misses
system.cpu.dcache.ReadReq_mshr_miss_latency::cpu.data     28173500                       # number of ReadReq MSHR miss cycles
system.cpu.dcache.ReadReq_mshr_miss_latency::total     28173500                       # number of ReadReq MSHR miss cycles
system.cpu.dcache.WriteReq_mshr_miss_latency::cpu.data 521491895000                       # number of WriteReq MSHR miss cycles
system.cpu.dcache.WriteReq_mshr_miss_latency::total 521491895000                       # number of WriteReq MSHR miss cycles
system.cpu.dcache.demand_mshr_miss_latency::cpu.data 521520068500                       # number of demand (read+write) MSHR miss cycles
system.cpu.dcache.demand_mshr_miss_latency::total 521520068500                       # number of demand (read+write) MSHR miss cycles
system.cpu.dcache.overall_mshr_miss_latency::cpu.data 521520068500                       # number of overall MSHR miss cycles
system.cpu.dcache.overall_mshr_miss_latency::total 521520068500                       # number of overall MSHR miss cycles
system.cpu.dcache.ReadReq_mshr_miss_rate::cpu.data     0.000256                       # mshr miss rate for ReadReq accesses
system.cpu.dcache.ReadReq_mshr_miss_rate::total     0.000256                       # mshr miss rate for ReadReq accesses
system.cpu.dcache.WriteReq_mshr_miss_rate::cpu.data     0.124577                       # mshr miss rate for WriteReq accesses
system.cpu.dcache.WriteReq_mshr_miss_rate::total     0.124577                       # mshr miss rate for WriteReq accesses
system.cpu.dcache.demand_mshr_miss_rate::cpu.data     0.121433                       # mshr miss rate for demand accesses
system.cpu.dcache.demand_mshr_miss_rate::total     0.121433                       # mshr miss rate for demand accesses
system.cpu.dcache.overall_mshr_miss_rate::cpu.data     0.121433                       # mshr miss rate for overall accesses
system.cpu.dcache.overall_mshr_miss_rate::total     0.121433                       # mshr miss rate for overall accesses
system.cpu.dcache.ReadReq_avg_mshr_miss_latency::cpu.data 81662.318841                       # average ReadReq mshr miss latency
system.cpu.dcache.ReadReq_avg_mshr_miss_latency::total 81662.318841                       # average ReadReq mshr miss latency
system.cpu.dcache.WriteReq_avg_mshr_miss_latency::cpu.data 80457.923786                       # average WriteReq mshr miss latency
system.cpu.dcache.WriteReq_avg_mshr_miss_latency::total 80457.923786                       # average WriteReq mshr miss latency
system.cpu.dcache.demand_avg_mshr_miss_latency::cpu.data 80457.987890                       # average overall mshr miss latency
system.cpu.dcache.demand_avg_mshr_miss_latency::total 80457.987890                       # average overall mshr miss latency
system.cpu.dcache.overall_avg_mshr_miss_latency::cpu.data 80457.987890                       # average overall mshr miss latency
system.cpu.dcache.overall_avg_mshr_miss_latency::total 80457.987890                       # average overall mshr miss latency
system.cpu.dcache.no_allocate_misses                0                       # Number of misses that were no-allocate
system.cpu.dtb_walker_cache.tags.replacements            0                       # number of replacements
system.cpu.dtb_walker_cache.tags.tagsinuse            0                       # Cycle average of tags in use
system.cpu.dtb_walker_cache.tags.total_refs            0                       # Total number of references to valid blocks.
system.cpu.dtb_walker_cache.tags.sampled_refs            0                       # Sample count of references to valid blocks.
system.cpu.dtb_walker_cache.tags.avg_refs          nan                       # Average number of references to valid blocks.
system.cpu.dtb_walker_cache.tags.warmup_cycle            0                       # Cycle when the warmup percentage was hit.
system.cpu.dtb_walker_cache.tags.tag_accesses            0                       # Number of tag accesses
system.cpu.dtb_walker_cache.tags.data_accesses            0                       # Number of data accesses
system.cpu.dtb_walker_cache.blocked_cycles::no_mshrs            0                       # number of cycles access was blocked
system.cpu.dtb_walker_cache.blocked_cycles::no_targets            0                       # number of cycles access was blocked
system.cpu.dtb_walker_cache.blocked::no_mshrs            0                       # number of cycles access was blocked
system.cpu.dtb_walker_cache.blocked::no_targets            0                       # number of cycles access was blocked
system.cpu.dtb_walker_cache.avg_blocked_cycles::no_mshrs          nan                       # average number of cycles each access was blocked
system.cpu.dtb_walker_cache.avg_blocked_cycles::no_targets          nan                       # average number of cycles each access was blocked
system.cpu.dtb_walker_cache.fast_writes             0                       # number of fast writes performed
system.cpu.dtb_walker_cache.cache_copies            0                       # number of cache copies performed
system.cpu.dtb_walker_cache.no_allocate_misses            0                       # Number of misses that were no-allocate
system.cpu.icache.tags.replacements               191                       # number of replacements
system.cpu.icache.tags.tagsinuse           471.448334                       # Cycle average of tags in use
system.cpu.icache.tags.total_refs            70767682                       # Total number of references to valid blocks.
system.cpu.icache.tags.sampled_refs               855                       # Sample count of references to valid blocks.
system.cpu.icache.tags.avg_refs          82769.218713                       # Average number of references to valid blocks.
system.cpu.icache.tags.warmup_cycle                 0                       # Cycle when the warmup percentage was hit.
system.cpu.icache.tags.occ_blocks::cpu.inst   471.448334                       # Average occupied blocks per requestor
system.cpu.icache.tags.occ_percent::cpu.inst     0.460399                       # Average percentage of cache occupancy
system.cpu.icache.tags.occ_percent::total     0.460399                       # Average percentage of cache occupancy
system.cpu.icache.tags.occ_task_id_blocks::1024          664                       # Occupied blocks per task id
system.cpu.icache.tags.age_task_id_blocks_1024::4          664                       # Occupied blocks per task id
system.cpu.icache.tags.occ_task_id_percent::1024     0.648438                       # Percentage of cache occupancy per task id
system.cpu.icache.tags.tag_accesses         141537929                       # Number of tag accesses
system.cpu.icache.tags.data_accesses        141537929                       # Number of data accesses
system.cpu.icache.ReadReq_hits::cpu.inst     70767682                       # number of ReadReq hits
system.cpu.icache.ReadReq_hits::total        70767682                       # number of ReadReq hits
system.cpu.icache.demand_hits::cpu.inst      70767682                       # number of demand (read+write) hits
system.cpu.icache.demand_hits::total         70767682                       # number of demand (read+write) hits
system.cpu.icache.overall_hits::cpu.inst     70767682                       # number of overall hits
system.cpu.icache.overall_hits::total        70767682                       # number of overall hits
system.cpu.icache.ReadReq_misses::cpu.inst          855                       # number of ReadReq misses
system.cpu.icache.ReadReq_misses::total           855                       # number of ReadReq misses
system.cpu.icache.demand_misses::cpu.inst          855                       # number of demand (read+write) misses
system.cpu.icache.demand_misses::total            855                       # number of demand (read+write) misses
system.cpu.icache.overall_misses::cpu.inst          855                       # number of overall misses
system.cpu.icache.overall_misses::total           855                       # number of overall misses
system.cpu.icache.ReadReq_miss_latency::cpu.inst     66774500                       # number of ReadReq miss cycles
system.cpu.icache.ReadReq_miss_latency::total     66774500                       # number of ReadReq miss cycles
system.cpu.icache.demand_miss_latency::cpu.inst     66774500                       # number of demand (read+write) miss cycles
system.cpu.icache.demand_miss_latency::total     66774500                       # number of demand (read+write) miss cycles
system.cpu.icache.overall_miss_latency::cpu.inst     66774500                       # number of overall miss cycles
system.cpu.icache.overall_miss_latency::total     66774500                       # number of overall miss cycles
system.cpu.icache.ReadReq_accesses::cpu.inst     70768537                       # number of ReadReq accesses(hits+misses)
system.cpu.icache.ReadReq_accesses::total     70768537                       # number of ReadReq accesses(hits+misses)
system.cpu.icache.demand_accesses::cpu.inst     70768537                       # number of demand (read+write) accesses
system.cpu.icache.demand_accesses::total     70768537                       # number of demand (read+write) accesses
system.cpu.icache.overall_accesses::cpu.inst     70768537                       # number of overall (read+write) accesses
system.cpu.icache.overall_accesses::total     70768537                       # number of overall (read+write) accesses
system.cpu.icache.ReadReq_miss_rate::cpu.inst     0.000012                       # miss rate for ReadReq accesses
system.cpu.icache.ReadReq_miss_rate::total     0.000012                       # miss rate for ReadReq accesses
system.cpu.icache.demand_miss_rate::cpu.inst     0.000012                       # miss rate for demand accesses
system.cpu.icache.demand_miss_rate::total     0.000012                       # miss rate for demand accesses
system.cpu.icache.overall_miss_rate::cpu.inst     0.000012                       # miss rate for overall accesses
system.cpu.icache.overall_miss_rate::total     0.000012                       # miss rate for overall accesses
system.cpu.icache.ReadReq_avg_miss_latency::cpu.inst 78098.830409                       # average ReadReq miss latency
system.cpu.icache.ReadReq_avg_miss_latency::total 78098.830409                       # average ReadReq miss latency
system.cpu.icache.demand_avg_miss_latency::cpu.inst 78098.830409                       # average overall miss latency
system.cpu.icache.demand_avg_miss_latency::total 78098.830409                       # average overall miss latency
system.cpu.icache.overall_avg_miss_latency::cpu.inst 78098.830409                       # average overall miss latency
system.cpu.icache.overall_avg_miss_latency::total 78098.830409                       # average overall miss latency
system.cpu.icache.blocked_cycles::no_mshrs            0                       # number of cycles access was blocked
system.cpu.icache.blocked_cycles::no_targets            0                       # number of cycles access was blocked
system.cpu.icache.blocked::no_mshrs                 0                       # number of cycles access was blocked
system.cpu.icache.blocked::no_targets               0                       # number of cycles access was blocked
system.cpu.icache.avg_blocked_cycles::no_mshrs          nan                       # average number of cycles each access was blocked
system.cpu.icache.avg_blocked_cycles::no_targets          nan                       # average number of cycles each access was blocked
system.cpu.icache.fast_writes                       0                       # number of fast writes performed
system.cpu.icache.cache_copies                      0                       # number of cache copies performed
system.cpu.icache.writebacks::writebacks          191                       # number of writebacks
system.cpu.icache.writebacks::total               191                       # number of writebacks
system.cpu.icache.ReadReq_mshr_misses::cpu.inst          855                       # number of ReadReq MSHR misses
system.cpu.icache.ReadReq_mshr_misses::total          855                       # number of ReadReq MSHR misses
system.cpu.icache.demand_mshr_misses::cpu.inst          855                       # number of demand (read+write) MSHR misses
system.cpu.icache.demand_mshr_misses::total          855                       # number of demand (read+write) MSHR misses
system.cpu.icache.overall_mshr_misses::cpu.inst          855                       # number of overall MSHR misses
system.cpu.icache.overall_mshr_misses::total          855                       # number of overall MSHR misses
system.cpu.icache.ReadReq_mshr_miss_latency::cpu.inst     65919500                       # number of ReadReq MSHR miss cycles
system.cpu.icache.ReadReq_mshr_miss_latency::total     65919500                       # number of ReadReq MSHR miss cycles
system.cpu.icache.demand_mshr_miss_latency::cpu.inst     65919500                       # number of demand (read+write) MSHR miss cycles
system.cpu.icache.demand_mshr_miss_latency::total     65919500                       # number of demand (read+write) MSHR miss cycles
system.cpu.icache.overall_mshr_miss_latency::cpu.inst     65919500                       # number of overall MSHR miss cycles
system.cpu.icache.overall_mshr_miss_latency::total     65919500                       # number of overall MSHR miss cycles
system.cpu.icache.ReadReq_mshr_miss_rate::cpu.inst     0.000012                       # mshr miss rate for ReadReq accesses
system.cpu.icache.ReadReq_mshr_miss_rate::total     0.000012                       # mshr miss rate for ReadReq accesses
system.cpu.icache.demand_mshr_miss_rate::cpu.inst     0.000012                       # mshr miss rate for demand accesses
system.cpu.icache.demand_mshr_miss_rate::total     0.000012                       # mshr miss rate for demand accesses
system.cpu.icache.overall_mshr_miss_rate::cpu.inst     0.000012                       # mshr miss rate for overall accesses
system.cpu.icache.overall_mshr_miss_rate::total     0.000012                       # mshr miss rate for overall accesses
system.cpu.icache.ReadReq_avg_mshr_miss_latency::cpu.inst 77098.830409                       # average ReadReq mshr miss latency
system.cpu.icache.ReadReq_avg_mshr_miss_latency::total 77098.830409                       # average ReadReq mshr miss latency
system.cpu.icache.demand_avg_mshr_miss_latency::cpu.inst 77098.830409                       # average overall mshr miss latency
system.cpu.icache.demand_avg_mshr_miss_latency::total 77098.830409                       # average overall mshr miss latency
system.cpu.icache.overall_avg_mshr_miss_latency::cpu.inst 77098.830409                       # average overall mshr miss latency
system.cpu.icache.overall_avg_mshr_miss_latency::total 77098.830409                       # average overall mshr miss latency
system.cpu.icache.no_allocate_misses                0                       # Number of misses that were no-allocate
system.cpu.itb_walker_cache.tags.replacements            0                       # number of replacements
system.cpu.itb_walker_cache.tags.tagsinuse            0                       # Cycle average of tags in use
system.cpu.itb_walker_cache.tags.total_refs            0                       # Total number of references to valid blocks.
system.cpu.itb_walker_cache.tags.sampled_refs            0                       # Sample count of references to valid blocks.
system.cpu.itb_walker_cache.tags.avg_refs          nan                       # Average number of references to valid blocks.
system.cpu.itb_walker_cache.tags.warmup_cycle            0                       # Cycle when the warmup percentage was hit.
system.cpu.itb_walker_cache.tags.tag_accesses            0                       # Number of tag accesses
system.cpu.itb_walker_cache.tags.data_accesses            0                       # Number of data accesses
system.cpu.itb_walker_cache.blocked_cycles::no_mshrs            0                       # number of cycles access was blocked
system.cpu.itb_walker_cache.blocked_cycles::no_targets            0                       # number of cycles access was blocked
system.cpu.itb_walker_cache.blocked::no_mshrs            0                       # number of cycles access was blocked
system.cpu.itb_walker_cache.blocked::no_targets            0                       # number of cycles access was blocked
system.cpu.itb_walker_cache.avg_blocked_cycles::no_mshrs          nan                       # average number of cycles each access was blocked
system.cpu.itb_walker_cache.avg_blocked_cycles::no_targets          nan                       # average number of cycles each access was blocked
system.cpu.itb_walker_cache.fast_writes             0                       # number of fast writes performed
system.cpu.itb_walker_cache.cache_copies            0                       # number of cache copies performed
system.cpu.itb_walker_cache.no_allocate_misses            0                       # Number of misses that were no-allocate
system.l2.tags.replacements                   6466432                       # number of replacements
system.l2.tags.tagsinuse                 14158.859774                       # Cycle average of tags in use
system.l2.tags.total_refs                         414                       # Total number of references to valid blocks.
system.l2.tags.sampled_refs                   6480768                       # Sample count of references to valid blocks.
system.l2.tags.avg_refs                      0.000064                       # Average number of references to valid blocks.
system.l2.tags.warmup_cycle                         0                       # Cycle when the warmup percentage was hit.
system.l2.tags.occ_blocks::writebacks    14152.942449                       # Average occupied blocks per requestor
system.l2.tags.occ_blocks::cpu.inst          4.395082                       # Average occupied blocks per requestor
system.l2.tags.occ_blocks::cpu.data          1.522242                       # Average occupied blocks per requestor
system.l2.tags.occ_percent::writebacks       0.863827                       # Average percentage of cache occupancy
system.l2.tags.occ_percent::cpu.inst         0.000268                       # Average percentage of cache occupancy
system.l2.tags.occ_percent::cpu.data         0.000093                       # Average percentage of cache occupancy
system.l2.tags.occ_percent::total            0.864188                       # Average percentage of cache occupancy
system.l2.tags.occ_task_id_blocks::1024         14336                       # Occupied blocks per task id
system.l2.tags.age_task_id_blocks_1024::0          102                       # Occupied blocks per task id
system.l2.tags.age_task_id_blocks_1024::1          913                       # Occupied blocks per task id
system.l2.tags.age_task_id_blocks_1024::2         9137                       # Occupied blocks per task id
system.l2.tags.age_task_id_blocks_1024::3         4184                       # Occupied blocks per task id
system.l2.tags.occ_task_id_percent::1024     0.875000                       # Percentage of cache occupancy per task id
system.l2.tags.tag_accesses                  25925099                       # Number of tag accesses
system.l2.tags.data_accesses                 25925099                       # Number of data accesses
system.l2.WritebackDirty_hits::writebacks      6479582                       # number of WritebackDirty hits
system.l2.WritebackDirty_hits::total          6479582                       # number of WritebackDirty hits
system.l2.WritebackClean_hits::writebacks          191                       # number of WritebackClean hits
system.l2.WritebackClean_hits::total              191                       # number of WritebackClean hits
system.l2.ReadExReq_hits::cpu.data                  9                       # number of ReadExReq hits
system.l2.ReadExReq_hits::total                     9                       # number of ReadExReq hits
system.l2.ReadCleanReq_hits::cpu.inst              46                       # number of ReadCleanReq hits
system.l2.ReadCleanReq_hits::total                 46                       # number of ReadCleanReq hits
system.l2.ReadSharedReq_hits::cpu.data              8                       # number of ReadSharedReq hits
system.l2.ReadSharedReq_hits::total                 8                       # number of ReadSharedReq hits
system.l2.demand_hits::cpu.inst                    46                       # number of demand (read+write) hits
system.l2.demand_hits::cpu.data                    17                       # number of demand (read+write) hits
system.l2.demand_hits::total                       63                       # number of demand (read+write) hits
system.l2.overall_hits::cpu.inst                   46                       # number of overall hits
system.l2.overall_hits::cpu.data                   17                       # number of overall hits
system.l2.overall_hits::total                      63                       # number of overall hits
system.l2.ReadExReq_misses::cpu.data          6481539                       # number of ReadExReq misses
system.l2.ReadExReq_misses::total             6481539                       # number of ReadExReq misses
system.l2.ReadCleanReq_misses::cpu.inst           809                       # number of ReadCleanReq misses
system.l2.ReadCleanReq_misses::total              809                       # number of ReadCleanReq misses
system.l2.ReadSharedReq_misses::cpu.data          337                       # number of ReadSharedReq misses
system.l2.ReadSharedReq_misses::total             337                       # number of ReadSharedReq misses
system.l2.demand_misses::cpu.inst                 809                       # number of demand (read+write) misses
system.l2.demand_misses::cpu.data             6481876                       # number of demand (read+write) misses
system.l2.demand_misses::total                6482685                       # number of demand (read+write) misses
system.l2.overall_misses::cpu.inst                809                       # number of overall misses
system.l2.overall_misses::cpu.data            6481876                       # number of overall misses
system.l2.overall_misses::total               6482685                       # number of overall misses
system.l2.ReadExReq_miss_latency::cpu.data 511769476500                       # number of ReadExReq miss cycles
system.l2.ReadExReq_miss_latency::total  511769476500                       # number of ReadExReq miss cycles
system.l2.ReadCleanReq_miss_latency::cpu.inst     64147000                       # number of ReadCleanReq miss cycles
system.l2.ReadCleanReq_miss_latency::total     64147000                       # number of ReadCleanReq miss cycles
system.l2.ReadSharedReq_miss_latency::cpu.data     27569000                       # number of ReadSharedReq miss cycles
system.l2.ReadSharedReq_miss_latency::total     27569000                       # number of ReadSharedReq miss cycles
system.l2.demand_miss_latency::cpu.inst      64147000                       # number of demand (read+write) miss cycles
system.l2.demand_miss_latency::cpu.data  511797045500                       # number of demand (read+write) miss cycles
system.l2.demand_miss_latency::total     511861192500                       # number of demand (read+write) miss cycles
system.l2.overall_miss_latency::cpu.inst     64147000                       # number of overall miss cycles
system.l2.overall_miss_latency::cpu.data 511797045500                       # number of overall miss cycles
system.l2.overall_miss_latency::total    511861192500                       # number of overall miss cycles
system.l2.WritebackDirty_accesses::writebacks      6479582                       # number of WritebackDirty accesses(hits+misses)
system.l2.WritebackDirty_accesses::total      6479582                       # number of WritebackDirty accesses(hits+misses)
system.l2.WritebackClean_accesses::writebacks          191                       # number of WritebackClean accesses(hits+misses)
system.l2.WritebackClean_accesses::total          191                       # number of WritebackClean accesses(hits+misses)
system.l2.ReadExReq_accesses::cpu.data        6481548                       # number of ReadExReq accesses(hits+misses)
system.l2.ReadExReq_accesses::total           6481548                       # number of ReadExReq accesses(hits+misses)
system.l2.ReadCleanReq_accesses::cpu.inst          855                       # number of ReadCleanReq accesses(hits+misses)
system.l2.ReadCleanReq_accesses::total            855                       # number of ReadCleanReq accesses(hits+misses)
system.l2.ReadSharedReq_accesses::cpu.data          345                       # number of ReadSharedReq accesses(hits+misses)
system.l2.ReadSharedReq_accesses::total           345                       # number of ReadSharedReq accesses(hits+misses)
system.l2.demand_accesses::cpu.inst               855                       # number of demand (read+write) accesses
system.l2.demand_accesses::cpu.data           6481893                       # number of demand (read+write) accesses
system.l2.demand_accesses::total              6482748                       # number of demand (read+write) accesses
system.l2.overall_accesses::cpu.inst              855                       # number of overall (read+write) accesses
system.l2.overall_accesses::cpu.data          6481893                       # number of overall (read+write) accesses
system.l2.overall_accesses::total             6482748                       # number of overall (read+write) accesses
system.l2.ReadExReq_miss_rate::cpu.data      0.999999                       # miss rate for ReadExReq accesses
system.l2.ReadExReq_miss_rate::total         0.999999                       # miss rate for ReadExReq accesses
system.l2.ReadCleanReq_miss_rate::cpu.inst     0.946199                       # miss rate for ReadCleanReq accesses
system.l2.ReadCleanReq_miss_rate::total      0.946199                       # miss rate for ReadCleanReq accesses
system.l2.ReadSharedReq_miss_rate::cpu.data     0.976812                       # miss rate for ReadSharedReq accesses
system.l2.ReadSharedReq_miss_rate::total     0.976812                       # miss rate for ReadSharedReq accesses
system.l2.demand_miss_rate::cpu.inst         0.946199                       # miss rate for demand accesses
system.l2.demand_miss_rate::cpu.data         0.999997                       # miss rate for demand accesses
system.l2.demand_miss_rate::total            0.999990                       # miss rate for demand accesses
system.l2.overall_miss_rate::cpu.inst        0.946199                       # miss rate for overall accesses
system.l2.overall_miss_rate::cpu.data        0.999997                       # miss rate for overall accesses
system.l2.overall_miss_rate::total           0.999990                       # miss rate for overall accesses
system.l2.ReadExReq_avg_miss_latency::cpu.data 78958.018535                       # average ReadExReq miss latency
system.l2.ReadExReq_avg_miss_latency::total 78958.018535                       # average ReadExReq miss latency
system.l2.ReadCleanReq_avg_miss_latency::cpu.inst 79291.718171                       # average ReadCleanReq miss latency
system.l2.ReadCleanReq_avg_miss_latency::total 79291.718171                       # average ReadCleanReq miss latency
system.l2.ReadSharedReq_avg_miss_latency::cpu.data 81807.121662                       # average ReadSharedReq miss latency
system.l2.ReadSharedReq_avg_miss_latency::total 81807.121662                       # average ReadSharedReq miss latency
system.l2.demand_avg_miss_latency::cpu.inst 79291.718171                       # average overall miss latency
system.l2.demand_avg_miss_latency::cpu.data 78958.166663                       # average overall miss latency
system.l2.demand_avg_miss_latency::total 78958.208289                       # average overall miss latency
system.l2.overall_avg_miss_latency::cpu.inst 79291.718171                       # average overall miss latency
system.l2.overall_avg_miss_latency::cpu.data 78958.166663                       # average overall miss latency
system.l2.overall_avg_miss_latency::total 78958.208289                       # average overall miss latency
system.l2.blocked_cycles::no_mshrs                  0                       # number of cycles access was blocked
system.l2.blocked_cycles::no_targets                0                       # number of cycles access was blocked
system.l2.blocked::no_mshrs                         0                       # number of cycles access was blocked
system.l2.blocked::no_targets                       0                       # number of cycles access was blocked
system.l2.avg_blocked_cycles::no_mshrs            nan                       # average number of cycles each access was blocked
system.l2.avg_blocked_cycles::no_targets          nan                       # average number of cycles each access was blocked
system.l2.fast_writes                               0                       # number of fast writes performed
system.l2.cache_copies                              0                       # number of cache copies performed
system.l2.writebacks::writebacks              6465229                       # number of writebacks
system.l2.writebacks::total                   6465229                       # number of writebacks
system.l2.CleanEvict_mshr_misses::writebacks           53                       # number of CleanEvict MSHR misses
system.l2.CleanEvict_mshr_misses::total            53                       # number of CleanEvict MSHR misses
system.l2.ReadExReq_mshr_misses::cpu.data      6481539                       # number of ReadExReq MSHR misses
system.l2.ReadExReq_mshr_misses::total        6481539                       # number of ReadExReq MSHR misses
system.l2.ReadCleanReq_mshr_misses::cpu.inst          809                       # number of ReadCleanReq MSHR misses
system.l2.ReadCleanReq_mshr_misses::total          809                       # number of ReadCleanReq MSHR misses
system.l2.ReadSharedReq_mshr_misses::cpu.data          337                       # number of ReadSharedReq MSHR misses
system.l2.ReadSharedReq_mshr_misses::total          337                       # number of ReadSharedReq MSHR misses
system.l2.demand_mshr_misses::cpu.inst            809                       # number of demand (read+write) MSHR misses
system.l2.demand_mshr_misses::cpu.data        6481876                       # number of demand (read+write) MSHR misses
system.l2.demand_mshr_misses::total           6482685                       # number of demand (read+write) MSHR misses
system.l2.overall_mshr_misses::cpu.inst           809                       # number of overall MSHR misses
system.l2.overall_mshr_misses::cpu.data       6481876                       # number of overall MSHR misses
system.l2.overall_mshr_misses::total          6482685                       # number of overall MSHR misses
system.l2.ReadExReq_mshr_miss_latency::cpu.data 446954086500                       # number of ReadExReq MSHR miss cycles
system.l2.ReadExReq_mshr_miss_latency::total 446954086500                       # number of ReadExReq MSHR miss cycles
system.l2.ReadCleanReq_mshr_miss_latency::cpu.inst     56057000                       # number of ReadCleanReq MSHR miss cycles
system.l2.ReadCleanReq_mshr_miss_latency::total     56057000                       # number of ReadCleanReq MSHR miss cycles
system.l2.ReadSharedReq_mshr_miss_latency::cpu.data     24199000                       # number of ReadSharedReq MSHR miss cycles
system.l2.ReadSharedReq_mshr_miss_latency::total     24199000                       # number of ReadSharedReq MSHR miss cycles
system.l2.demand_mshr_miss_latency::cpu.inst     56057000                       # number of demand (read+write) MSHR miss cycles
system.l2.demand_mshr_miss_latency::cpu.data 446978285500                       # number of demand (read+write) MSHR miss cycles
system.l2.demand_mshr_miss_latency::total 447034342500                       # number of demand (read+write) MSHR miss cycles
system.l2.overall_mshr_miss_latency::cpu.inst     56057000                       # number of overall MSHR miss cycles
system.l2.overall_mshr_miss_latency::cpu.data 446978285500                       # number of overall MSHR miss cycles
system.l2.overall_mshr_miss_latency::total 447034342500                       # number of overall MSHR miss cycles
system.l2.CleanEvict_mshr_miss_rate::writebacks          inf                       # mshr miss rate for CleanEvict accesses
system.l2.CleanEvict_mshr_miss_rate::total          inf                       # mshr miss rate for CleanEvict accesses
system.l2.ReadExReq_mshr_miss_rate::cpu.data     0.999999                       # mshr miss rate for ReadExReq accesses
system.l2.ReadExReq_mshr_miss_rate::total     0.999999                       # mshr miss rate for ReadExReq accesses
system.l2.ReadCleanReq_mshr_miss_rate::cpu.inst     0.946199                       # mshr miss rate for ReadCleanReq accesses
system.l2.ReadCleanReq_mshr_miss_rate::total     0.946199                       # mshr miss rate for ReadCleanReq accesses
system.l2.ReadSharedReq_mshr_miss_rate::cpu.data     0.976812                       # mshr miss rate for ReadSharedReq accesses
system.l2.ReadSharedReq_mshr_miss_rate::total     0.976812                       # mshr miss rate for ReadSharedReq accesses
system.l2.demand_mshr_miss_rate::cpu.inst     0.946199                       # mshr miss rate for demand accesses
system.l2.demand_mshr_miss_rate::cpu.data     0.999997                       # mshr miss rate for demand accesses
system.l2.demand_mshr_miss_rate::total       0.999990                       # mshr miss rate for demand accesses
system.l2.overall_mshr_miss_rate::cpu.inst     0.946199                       # mshr miss rate for overall accesses
system.l2.overall_mshr_miss_rate::cpu.data     0.999997                       # mshr miss rate for overall accesses
system.l2.overall_mshr_miss_rate::total      0.999990                       # mshr miss rate for overall accesses
system.l2.ReadExReq_avg_mshr_miss_latency::cpu.data 68958.018535                       # average ReadExReq mshr miss latency
system.l2.ReadExReq_avg_mshr_miss_latency::total 68958.018535                       # average ReadExReq mshr miss latency
system.l2.ReadCleanReq_avg_mshr_miss_latency::cpu.inst 69291.718171                       # average ReadCleanReq mshr miss latency
system.l2.ReadCleanReq_avg_mshr_miss_latency::total 69291.718171                       # average ReadCleanReq mshr miss latency
system.l2.ReadSharedReq_avg_mshr_miss_latency::cpu.data 71807.121662                       # average ReadSharedReq mshr miss latency
system.l2.ReadSharedReq_avg_mshr_miss_latency::total 71807.121662                       # average ReadSharedReq mshr miss latency
system.l2.demand_avg_mshr_miss_latency::cpu.inst 69291.718171                       # average overall mshr miss latency
system.l2.demand_avg_mshr_miss_latency::cpu.data 68958.166663                       # average overall mshr miss latency
system.l2.demand_avg_mshr_miss_latency::total 68958.208289                       # average overall mshr miss latency
system.l2.overall_avg_mshr_miss_latency::cpu.inst 69291.718171                       # average overall mshr miss latency
system.l2.overall_avg_mshr_miss_latency::cpu.data 68958.166663                       # average overall mshr miss latency
system.l2.overall_avg_mshr_miss_latency::total 68958.208289                       # average overall mshr miss latency
system.l2.no_allocate_misses                        0                       # Number of misses that were no-allocate
system.membus.trans_dist::ReadResp               1146                       # Transaction distribution
system.membus.trans_dist::WritebackDirty      6465229                       # Transaction distribution
system.membus.trans_dist::CleanEvict              408                       # Transaction distribution
system.membus.trans_dist::ReadExReq           6481539                       # Transaction distribution
system.membus.trans_dist::ReadExResp          6481539                       # Transaction distribution
system.membus.trans_dist::ReadSharedReq          1146                       # Transaction distribution
system.membus.pkt_count_system.l2.mem_side::system.mem_ctrls.port     19431007                       # Packet count per connected master and slave (bytes)
system.membus.pkt_count_system.l2.mem_side::total     19431007                       # Packet count per connected master and slave (bytes)
system.membus.pkt_count::total               19431007                       # Packet count per connected master and slave (bytes)
system.membus.pkt_size_system.l2.mem_side::system.mem_ctrls.port    828666496                       # Cumulative packet size per connected master and slave (bytes)
system.membus.pkt_size_system.l2.mem_side::total    828666496                       # Cumulative packet size per connected master and slave (bytes)
system.membus.pkt_size::total               828666496                       # Cumulative packet size per connected master and slave (bytes)
system.membus.snoops                                0                       # Total snoops (count)
system.membus.snoop_fanout::samples          12948322                       # Request fanout histogram
system.membus.snoop_fanout::mean                    0                       # Request fanout histogram
system.membus.snoop_fanout::stdev                   0                       # Request fanout histogram
system.membus.snoop_fanout::underflows              0      0.00%      0.00% # Request fanout histogram
system.membus.snoop_fanout::0                12948322    100.00%    100.00% # Request fanout histogram
system.membus.snoop_fanout::1                       0      0.00%    100.00% # Request fanout histogram
system.membus.snoop_fanout::overflows               0      0.00%    100.00% # Request fanout histogram
system.membus.snoop_fanout::min_value               0                       # Request fanout histogram
system.membus.snoop_fanout::max_value               0                       # Request fanout histogram
system.membus.snoop_fanout::total            12948322                       # Request fanout histogram
system.membus.reqLayer2.occupancy         38809246000                       # Layer occupancy (ticks)
system.membus.reqLayer2.utilization               6.0                       # Layer utilization (%)
system.membus.respLayer1.occupancy        34098192750                       # Layer occupancy (ticks)
system.membus.respLayer1.utilization              5.3                       # Layer utilization (%)
system.tol2bus.snoop_filter.tot_requests     12962784                       # Total number of requests made to the snoop filter.
system.tol2bus.snoop_filter.hit_single_requests      6480036                       # Number of requests hitting in the snoop filter with a single holder of the requested data.
system.tol2bus.snoop_filter.hit_multi_requests            1                       # Number of requests hitting in the snoop filter with multiple (>1) holders of the requested data.
system.tol2bus.snoop_filter.tot_snoops            848                       # Total number of snoops made to the snoop filter.
system.tol2bus.snoop_filter.hit_single_snoops          847                       # Number of snoops hitting in the snoop filter with a single holder of the requested data.
system.tol2bus.snoop_filter.hit_multi_snoops            1                       # Number of snoops hitting in the snoop filter with multiple (>1) holders of the requested data.
system.tol2bus.trans_dist::ReadResp              1200                       # Transaction distribution
system.tol2bus.trans_dist::WritebackDirty     12944811                       # Transaction distribution
system.tol2bus.trans_dist::WritebackClean          191                       # Transaction distribution
system.tol2bus.trans_dist::CleanEvict            1465                       # Transaction distribution
system.tol2bus.trans_dist::ReadExReq          6481548                       # Transaction distribution
system.tol2bus.trans_dist::ReadExResp         6481548                       # Transaction distribution
system.tol2bus.trans_dist::ReadCleanReq           855                       # Transaction distribution
system.tol2bus.trans_dist::ReadSharedReq          345                       # Transaction distribution
system.tol2bus.pkt_count_system.cpu.icache.mem_side::system.l2.cpu_side         1901                       # Packet count per connected master and slave (bytes)
system.tol2bus.pkt_count_system.cpu.dcache.mem_side::system.l2.cpu_side     19443630                       # Packet count per connected master and slave (bytes)
system.tol2bus.pkt_count::total              19445531                       # Packet count per connected master and slave (bytes)
system.tol2bus.pkt_size_system.cpu.icache.mem_side::system.l2.cpu_side        66944                       # Cumulative packet size per connected master and slave (bytes)
system.tol2bus.pkt_size_system.cpu.dcache.mem_side::system.l2.cpu_side    829534400                       # Cumulative packet size per connected master and slave (bytes)
system.tol2bus.pkt_size::total              829601344                       # Cumulative packet size per connected master and slave (bytes)
system.tol2bus.snoops                         6466432                       # Total snoops (count)
system.tol2bus.snoop_fanout::samples         12949180                       # Request fanout histogram
system.tol2bus.snoop_fanout::mean            0.000066                       # Request fanout histogram
system.tol2bus.snoop_fanout::stdev           0.008111                       # Request fanout histogram
system.tol2bus.snoop_fanout::underflows             0      0.00%      0.00% # Request fanout histogram
system.tol2bus.snoop_fanout::0               12948331     99.99%     99.99% # Request fanout histogram
system.tol2bus.snoop_fanout::1                    848      0.01%    100.00% # Request fanout histogram
system.tol2bus.snoop_fanout::2                      1      0.00%    100.00% # Request fanout histogram
system.tol2bus.snoop_fanout::3                      0      0.00%    100.00% # Request fanout histogram
system.tol2bus.snoop_fanout::4                      0      0.00%    100.00% # Request fanout histogram
system.tol2bus.snoop_fanout::overflows              0      0.00%    100.00% # Request fanout histogram
system.tol2bus.snoop_fanout::min_value              0                       # Request fanout histogram
system.tol2bus.snoop_fanout::max_value              2                       # Request fanout histogram
system.tol2bus.snoop_fanout::total           12949180                       # Request fanout histogram
system.tol2bus.reqLayer0.occupancy        12961165000                       # Layer occupancy (ticks)
system.tol2bus.reqLayer0.utilization              2.0                       # Layer utilization (%)
system.tol2bus.respLayer0.occupancy           1282500                       # Layer occupancy (ticks)
system.tol2bus.respLayer0.utilization             0.0                       # Layer utilization (%)
system.tol2bus.respLayer1.occupancy        9722839500                       # Layer occupancy (ticks)
system.tol2bus.respLayer1.utilization             1.5                       # Layer utilization (%)

---------- End Simulation Statistics   ----------
