
---------- Begin Simulation Statistics ----------
sim_seconds                                  0.472691                       # Number of seconds simulated
sim_ticks                                472690970500                       # Number of ticks simulated
final_tick                               472690970500                       # Number of ticks from beginning of simulation (restored from checkpoints and never reset)
sim_freq                                 1000000000000                       # Frequency of simulated ticks
host_inst_rate                                 120675                       # Simulator instruction rate (inst/s)
host_op_rate                                   231651                       # Simulator op (including micro ops) rate (op/s)
host_tick_rate                             1140842783                       # Simulator tick rate (ticks/s)
host_mem_usage                                1191916                       # Number of bytes of host memory used
host_seconds                                   414.34                       # Real time elapsed on the host
sim_insts                                    50000000                       # Number of instructions simulated
sim_ops                                      95981250                       # Number of ops (including micro ops) simulated
system.voltage_domain.voltage                       1                       # Voltage in Volts
system.clk_domain.clock                          1000                       # Clock period in ticks
system.mem_ctrls.bytes_read::cpu.inst           51264                       # Number of bytes read from this memory
system.mem_ctrls.bytes_read::cpu.data       266456576                       # Number of bytes read from this memory
system.mem_ctrls.bytes_read::total          266507840                       # Number of bytes read from this memory
system.mem_ctrls.bytes_inst_read::cpu.inst        51264                       # Number of instructions bytes read from this memory
system.mem_ctrls.bytes_inst_read::total         51264                       # Number of instructions bytes read from this memory
system.mem_ctrls.bytes_written::writebacks    132250816                       # Number of bytes written to this memory
system.mem_ctrls.bytes_written::total       132250816                       # Number of bytes written to this memory
system.mem_ctrls.num_reads::cpu.inst              801                       # Number of read requests responded to by this memory
system.mem_ctrls.num_reads::cpu.data          4163384                       # Number of read requests responded to by this memory
system.mem_ctrls.num_reads::total             4164185                       # Number of read requests responded to by this memory
system.mem_ctrls.num_writes::writebacks       2066419                       # Number of write requests responded to by this memory
system.mem_ctrls.num_writes::total            2066419                       # Number of write requests responded to by this memory
system.mem_ctrls.bw_read::cpu.inst             108451                       # Total read bandwidth from this memory (bytes/s)
system.mem_ctrls.bw_read::cpu.data          563701430                       # Total read bandwidth from this memory (bytes/s)
system.mem_ctrls.bw_read::total             563809881                       # Total read bandwidth from this memory (bytes/s)
system.mem_ctrls.bw_inst_read::cpu.inst        108451                       # Instruction read bandwidth from this memory (bytes/s)
system.mem_ctrls.bw_inst_read::total           108451                       # Instruction read bandwidth from this memory (bytes/s)
system.mem_ctrls.bw_write::writebacks       279782827                       # Write bandwidth from this memory (bytes/s)
system.mem_ctrls.bw_write::total            279782827                       # Write bandwidth from this memory (bytes/s)
system.mem_ctrls.bw_total::writebacks       279782827                       # Total bandwidth to/from this memory (bytes/s)
system.mem_ctrls.bw_total::cpu.inst            108451                       # Total bandwidth to/from this memory (bytes/s)
system.mem_ctrls.bw_total::cpu.data         563701430                       # Total bandwidth to/from this memory (bytes/s)
system.mem_ctrls.bw_total::total            843592708                       # Total bandwidth to/from this memory (bytes/s)
system.mem_ctrls.readReqs                     4164185                       # Number of read requests accepted
system.mem_ctrls.writeReqs                    2066419                       # Number of write requests accepted
system.mem_ctrls.readBursts                   4164185                       # Number of DRAM read bursts, including those serviced by the write queue
system.mem_ctrls.writeBursts                  2066419                       # Number of DRAM write bursts, including those merged in the write queue
system.mem_ctrls.bytesReadDRAM              266507840                       # Total number of bytes read from DRAM
system.mem_ctrls.bytesReadWrQ                       0                       # Total number of bytes read from write queue
system.mem_ctrls.bytesWritten               132249344                       # Total number of bytes written to DRAM
system.mem_ctrls.bytesReadSys               266507840                       # Total read bytes from the system interface side
system.mem_ctrls.bytesWrittenSys            132250816                       # Total written bytes from the system interface side
system.mem_ctrls.servicedByWrQ                      0                       # Number of DRAM read bursts serviced by the write queue
system.mem_ctrls.mergedWrBursts                     0                       # Number of DRAM write bursts merged with an existing one
system.mem_ctrls.neitherReadNorWriteReqs          166                       # Number of requests that are neither read nor write
system.mem_ctrls.perBankRdBursts::0            260112                       # Per bank write bursts
system.mem_ctrls.perBankRdBursts::1            260060                       # Per bank write bursts
system.mem_ctrls.perBankRdBursts::2            260019                       # Per bank write bursts
system.mem_ctrls.perBankRdBursts::3            260183                       # Per bank write bursts
system.mem_ctrls.perBankRdBursts::4            260304                       # Per bank write bursts
system.mem_ctrls.perBankRdBursts::5            260255                       # Per bank write bursts
system.mem_ctrls.perBankRdBursts::6            260058                       # Per bank write bursts
system.mem_ctrls.perBankRdBursts::7            260090                       # Per bank write bursts
system.mem_ctrls.perBankRdBursts::8            260128                       # Per bank write bursts
system.mem_ctrls.perBankRdBursts::9            260258                       # Per bank write bursts
system.mem_ctrls.perBankRdBursts::10           260342                       # Per bank write bursts
system.mem_ctrls.perBankRdBursts::11           260490                       # Per bank write bursts
system.mem_ctrls.perBankRdBursts::12           260459                       # Per bank write bursts
system.mem_ctrls.perBankRdBursts::13           260492                       # Per bank write bursts
system.mem_ctrls.perBankRdBursts::14           260481                       # Per bank write bursts
system.mem_ctrls.perBankRdBursts::15           260454                       # Per bank write bursts
system.mem_ctrls.perBankWrBursts::0            128924                       # Per bank write bursts
system.mem_ctrls.perBankWrBursts::1            128938                       # Per bank write bursts
system.mem_ctrls.perBankWrBursts::2            128930                       # Per bank write bursts
system.mem_ctrls.perBankWrBursts::3            129125                       # Per bank write bursts
system.mem_ctrls.perBankWrBursts::4            129168                       # Per bank write bursts
system.mem_ctrls.perBankWrBursts::5            129157                       # Per bank write bursts
system.mem_ctrls.perBankWrBursts::6            128990                       # Per bank write bursts
system.mem_ctrls.perBankWrBursts::7            128935                       # Per bank write bursts
system.mem_ctrls.perBankWrBursts::8            129038                       # Per bank write bursts
system.mem_ctrls.perBankWrBursts::9            129144                       # Per bank write bursts
system.mem_ctrls.perBankWrBursts::10           129214                       # Per bank write bursts
system.mem_ctrls.perBankWrBursts::11           129392                       # Per bank write bursts
system.mem_ctrls.perBankWrBursts::12           129375                       # Per bank write bursts
system.mem_ctrls.perBankWrBursts::13           129375                       # Per bank write bursts
system.mem_ctrls.perBankWrBursts::14           129376                       # Per bank write bursts
system.mem_ctrls.perBankWrBursts::15           129315                       # Per bank write bursts
system.mem_ctrls.numRdRetry                         0                       # Number of times read queue was full causing retry
system.mem_ctrls.numWrRetry                         0                       # Number of times write queue was full causing retry
system.mem_ctrls.totGap                  472690955500                       # Total gap between requests
system.mem_ctrls.readPktSize::0                     0                       # Read request sizes (log2)
system.mem_ctrls.readPktSize::1                     0                       # Read request sizes (log2)
system.mem_ctrls.readPktSize::2                     0                       # Read request sizes (log2)
system.mem_ctrls.readPktSize::3                     0                       # Read request sizes (log2)
system.mem_ctrls.readPktSize::4                     0                       # Read request sizes (log2)
system.mem_ctrls.readPktSize::5                     0                       # Read request sizes (log2)
system.mem_ctrls.readPktSize::6               4164185                       # Read request sizes (log2)
system.mem_ctrls.writePktSize::0                    0                       # Write request sizes (log2)
system.mem_ctrls.writePktSize::1                    0                       # Write request sizes (log2)
system.mem_ctrls.writePktSize::2                    0                       # Write request sizes (log2)
system.mem_ctrls.writePktSize::3                    0                       # Write request sizes (log2)
system.mem_ctrls.writePktSize::4                    0                       # Write request sizes (log2)
system.mem_ctrls.writePktSize::5                    0                       # Write request sizes (log2)
system.mem_ctrls.writePktSize::6              2066419                       # Write request sizes (log2)
system.mem_ctrls.rdQLenPdf::0                 4164184                       # What read queue length does an incoming req see
system.mem_ctrls.rdQLenPdf::1                       1                       # What read queue length does an incoming req see
system.mem_ctrls.rdQLenPdf::2                       0                       # What read queue length does an incoming req see
system.mem_ctrls.rdQLenPdf::3                       0                       # What read queue length does an incoming req see
system.mem_ctrls.rdQLenPdf::4                       0                       # What read queue length does an incoming req see
system.mem_ctrls.rdQLenPdf::5                       0                       # What read queue length does an incoming req see
system.mem_ctrls.rdQLenPdf::6                       0                       # What read queue length does an incoming req see
system.mem_ctrls.rdQLenPdf::7                       0                       # What read queue length does an incoming req see
system.mem_ctrls.rdQLenPdf::8                       0                       # What read queue length does an incoming req see
system.mem_ctrls.rdQLenPdf::9                       0                       # What read queue length does an incoming req see
system.mem_ctrls.rdQLenPdf::10                      0                       # What read queue length does an incoming req see
system.mem_ctrls.rdQLenPdf::11                      0                       # What read queue length does an incoming req see
system.mem_ctrls.rdQLenPdf::12                      0                       # What read queue length does an incoming req see
system.mem_ctrls.rdQLenPdf::13                      0                       # What read queue length does an incoming req see
system.mem_ctrls.rdQLenPdf::14                      0                       # What read queue length does an incoming req see
system.mem_ctrls.rdQLenPdf::15                      0                       # What read queue length does an incoming req see
system.mem_ctrls.rdQLenPdf::16                      0                       # What read queue length does an incoming req see
system.mem_ctrls.rdQLenPdf::17                      0                       # What read queue length does an incoming req see
system.mem_ctrls.rdQLenPdf::18                      0                       # What read queue length does an incoming req see
system.mem_ctrls.rdQLenPdf::19                      0                       # What read queue length does an incoming req see
system.mem_ctrls.rdQLenPdf::20                      0                       # What read queue length does an incoming req see
system.mem_ctrls.rdQLenPdf::21                      0                       # What read queue length does an incoming req see
system.mem_ctrls.rdQLenPdf::22                      0                       # What read queue length does an incoming req see
system.mem_ctrls.rdQLenPdf::23                      0                       # What read queue length does an incoming req see
system.mem_ctrls.rdQLenPdf::24                      0                       # What read queue length does an incoming req see
system.mem_ctrls.rdQLenPdf::25                      0                       # What read queue length does an incoming req see
system.mem_ctrls.rdQLenPdf::26                      0                       # What read queue length does an incoming req see
system.mem_ctrls.rdQLenPdf::27                      0                       # What read queue length does an incoming req see
system.mem_ctrls.rdQLenPdf::28                      0                       # What read queue length does an incoming req see
system.mem_ctrls.rdQLenPdf::29                      0                       # What read queue length does an incoming req see
system.mem_ctrls.rdQLenPdf::30                      0                       # What read queue length does an incoming req see
system.mem_ctrls.rdQLenPdf::31                      0                       # What read queue length does an incoming req see
system.mem_ctrls.wrQLenPdf::0                       1                       # What write queue length does an incoming req see
system.mem_ctrls.wrQLenPdf::1                       1                       # What write queue length does an incoming req see
system.mem_ctrls.wrQLenPdf::2                       1                       # What write queue length does an incoming req see
system.mem_ctrls.wrQLenPdf::3                       1                       # What write queue length does an incoming req see
system.mem_ctrls.wrQLenPdf::4                       1                       # What write queue length does an incoming req see
system.mem_ctrls.wrQLenPdf::5                       1                       # What write queue length does an incoming req see
system.mem_ctrls.wrQLenPdf::6                       1                       # What write queue length does an incoming req see
system.mem_ctrls.wrQLenPdf::7                       1                       # What write queue length does an incoming req see
system.mem_ctrls.wrQLenPdf::8                       1                       # What write queue length does an incoming req see
system.mem_ctrls.wrQLenPdf::9                       1                       # What write queue length does an incoming req see
system.mem_ctrls.wrQLenPdf::10                      1                       # What write queue length does an incoming req see
system.mem_ctrls.wrQLenPdf::11                      1                       # What write queue length does an incoming req see
system.mem_ctrls.wrQLenPdf::12                      1                       # What write queue length does an incoming req see
system.mem_ctrls.wrQLenPdf::13                      1                       # What write queue length does an incoming req see
system.mem_ctrls.wrQLenPdf::14                      1                       # What write queue length does an incoming req see
system.mem_ctrls.wrQLenPdf::15                    328                       # What write queue length does an incoming req see
system.mem_ctrls.wrQLenPdf::16                    329                       # What write queue length does an incoming req see
system.mem_ctrls.wrQLenPdf::17                 128579                       # What write queue length does an incoming req see
system.mem_ctrls.wrQLenPdf::18                 129091                       # What write queue length does an incoming req see
system.mem_ctrls.wrQLenPdf::19                 129090                       # What write queue length does an incoming req see
system.mem_ctrls.wrQLenPdf::20                 129090                       # What write queue length does an incoming req see
system.mem_ctrls.wrQLenPdf::21                 129091                       # What write queue length does an incoming req see
system.mem_ctrls.wrQLenPdf::22                 129091                       # What write queue length does an incoming req see
system.mem_ctrls.wrQLenPdf::23                 129089                       # What write queue length does an incoming req see
system.mem_ctrls.wrQLenPdf::24                 129091                       # What write queue length does an incoming req see
system.mem_ctrls.wrQLenPdf::25                 129911                       # What write queue length does an incoming req see
system.mem_ctrls.wrQLenPdf::26                 129089                       # What write queue length does an incoming req see
system.mem_ctrls.wrQLenPdf::27                 129090                       # What write queue length does an incoming req see
system.mem_ctrls.wrQLenPdf::28                 129089                       # What write queue length does an incoming req see
system.mem_ctrls.wrQLenPdf::29                 129089                       # What write queue length does an incoming req see
system.mem_ctrls.wrQLenPdf::30                 129089                       # What write queue length does an incoming req see
system.mem_ctrls.wrQLenPdf::31                 129089                       # What write queue length does an incoming req see
system.mem_ctrls.wrQLenPdf::32                 129089                       # What write queue length does an incoming req see
system.mem_ctrls.wrQLenPdf::33                      0                       # What write queue length does an incoming req see
system.mem_ctrls.wrQLenPdf::34                      0                       # What write queue length does an incoming req see
system.mem_ctrls.wrQLenPdf::35                      0                       # What write queue length does an incoming req see
system.mem_ctrls.wrQLenPdf::36                      0                       # What write queue length does an incoming req see
system.mem_ctrls.wrQLenPdf::37                      0                       # What write queue length does an incoming req see
system.mem_ctrls.wrQLenPdf::38                      0                       # What write queue length does an incoming req see
system.mem_ctrls.wrQLenPdf::39                      0                       # What write queue length does an incoming req see
system.mem_ctrls.wrQLenPdf::40                      0                       # What write queue length does an incoming req see
system.mem_ctrls.wrQLenPdf::41                      0                       # What write queue length does an incoming req see
system.mem_ctrls.wrQLenPdf::42                      0                       # What write queue length does an incoming req see
system.mem_ctrls.wrQLenPdf::43                      0                       # What write queue length does an incoming req see
system.mem_ctrls.wrQLenPdf::44                      0                       # What write queue length does an incoming req see
system.mem_ctrls.wrQLenPdf::45                      0                       # What write queue length does an incoming req see
system.mem_ctrls.wrQLenPdf::46                      0                       # What write queue length does an incoming req see
system.mem_ctrls.wrQLenPdf::47                      0                       # What write queue length does an incoming req see
system.mem_ctrls.wrQLenPdf::48                      0                       # What write queue length does an incoming req see
system.mem_ctrls.wrQLenPdf::49                      0                       # What write queue length does an incoming req see
system.mem_ctrls.wrQLenPdf::50                      0                       # What write queue length does an incoming req see
system.mem_ctrls.wrQLenPdf::51                      0                       # What write queue length does an incoming req see
system.mem_ctrls.wrQLenPdf::52                      0                       # What write queue length does an incoming req see
system.mem_ctrls.wrQLenPdf::53                      0                       # What write queue length does an incoming req see
system.mem_ctrls.wrQLenPdf::54                      0                       # What write queue length does an incoming req see
system.mem_ctrls.wrQLenPdf::55                      0                       # What write queue length does an incoming req see
system.mem_ctrls.wrQLenPdf::56                      0                       # What write queue length does an incoming req see
system.mem_ctrls.wrQLenPdf::57                      0                       # What write queue length does an incoming req see
system.mem_ctrls.wrQLenPdf::58                      0                       # What write queue length does an incoming req see
system.mem_ctrls.wrQLenPdf::59                      0                       # What write queue length does an incoming req see
system.mem_ctrls.wrQLenPdf::60                      0                       # What write queue length does an incoming req see
system.mem_ctrls.wrQLenPdf::61                      0                       # What write queue length does an incoming req see
system.mem_ctrls.wrQLenPdf::62                      0                       # What write queue length does an incoming req see
system.mem_ctrls.wrQLenPdf::63                      0                       # What write queue length does an incoming req see
system.mem_ctrls.bytesPerActivate::samples       466339                       # Bytes accessed per row activation
system.mem_ctrls.bytesPerActivate::mean    855.078010                       # Bytes accessed per row activation
system.mem_ctrls.bytesPerActivate::gmean   749.835181                       # Bytes accessed per row activation
system.mem_ctrls.bytesPerActivate::stdev   295.613617                       # Bytes accessed per row activation
system.mem_ctrls.bytesPerActivate::0-127        13992      3.00%      3.00% # Bytes accessed per row activation
system.mem_ctrls.bytesPerActivate::128-255        17197      3.69%      6.69% # Bytes accessed per row activation
system.mem_ctrls.bytesPerActivate::256-383        28062      6.02%     12.71% # Bytes accessed per row activation
system.mem_ctrls.bytesPerActivate::384-511        17718      3.80%     16.50% # Bytes accessed per row activation
system.mem_ctrls.bytesPerActivate::512-639        14585      3.13%     19.63% # Bytes accessed per row activation
system.mem_ctrls.bytesPerActivate::640-767        21255      4.56%     24.19% # Bytes accessed per row activation
system.mem_ctrls.bytesPerActivate::768-895        14488      3.11%     27.30% # Bytes accessed per row activation
system.mem_ctrls.bytesPerActivate::896-1023        17794      3.82%     31.11% # Bytes accessed per row activation
system.mem_ctrls.bytesPerActivate::1024-1151       321248     68.89%    100.00% # Bytes accessed per row activation
system.mem_ctrls.bytesPerActivate::total       466339                       # Bytes accessed per row activation
system.mem_ctrls.rdPerTurnAround::samples       129089                       # Reads before turning the bus around for writes
system.mem_ctrls.rdPerTurnAround::mean      32.258202                       # Reads before turning the bus around for writes
system.mem_ctrls.rdPerTurnAround::gmean     16.016268                       # Reads before turning the bus around for writes
system.mem_ctrls.rdPerTurnAround::stdev   5726.531462                       # Reads before turning the bus around for writes
system.mem_ctrls.rdPerTurnAround::0-65535       129088    100.00%    100.00% # Reads before turning the bus around for writes
system.mem_ctrls.rdPerTurnAround::2.03162e+06-2.09715e+06            1      0.00%    100.00% # Reads before turning the bus around for writes
system.mem_ctrls.rdPerTurnAround::total        129089                       # Reads before turning the bus around for writes
system.mem_ctrls.wrPerTurnAround::samples       129089                       # Writes before turning the bus around for reads
system.mem_ctrls.wrPerTurnAround::mean      16.007530                       # Writes before turning the bus around for reads
system.mem_ctrls.wrPerTurnAround::gmean     16.006907                       # Writes before turning the bus around for reads
system.mem_ctrls.wrPerTurnAround::stdev      0.149488                       # Writes before turning the bus around for reads
system.mem_ctrls.wrPerTurnAround::16           128761     99.75%     99.75% # Writes before turning the bus around for reads
system.mem_ctrls.wrPerTurnAround::18               12      0.01%     99.76% # Writes before turning the bus around for reads
system.mem_ctrls.wrPerTurnAround::19              316      0.24%    100.00% # Writes before turning the bus around for reads
system.mem_ctrls.wrPerTurnAround::total        129089                       # Writes before turning the bus around for reads
system.mem_ctrls.totQLat                  29172758500                       # Total ticks spent queuing
system.mem_ctrls.totMemAccLat            107251227250                       # Total ticks spent from burst creation until serviced by the DRAM
system.mem_ctrls.totBusLat                20820925000                       # Total ticks spent in databus transfers
system.mem_ctrls.avgQLat                      7005.63                       # Average queueing delay per DRAM burst
system.mem_ctrls.avgBusLat                    5000.00                       # Average bus latency per DRAM burst
system.mem_ctrls.avgMemAccLat                25755.63                       # Average memory access latency per DRAM burst
system.mem_ctrls.avgRdBW                       563.81                       # Average DRAM read bandwidth in MiByte/s
system.mem_ctrls.avgWrBW                       279.78                       # Average achieved write bandwidth in MiByte/s
system.mem_ctrls.avgRdBWSys                    563.81                       # Average system read bandwidth in MiByte/s
system.mem_ctrls.avgWrBWSys                    279.78                       # Average system write bandwidth in MiByte/s
system.mem_ctrls.peakBW                      12800.00                       # Theoretical peak bandwidth in MiByte/s
system.mem_ctrls.busUtil                         6.59                       # Data bus utilization in percentage
system.mem_ctrls.busUtilRead                     4.40                       # Data bus utilization in percentage for reads
system.mem_ctrls.busUtilWrite                    2.19                       # Data bus utilization in percentage for writes
system.mem_ctrls.avgRdQLen                       1.00                       # Average read queue length when enqueuing
system.mem_ctrls.avgWrQLen                      15.52                       # Average write queue length when enqueuing
system.mem_ctrls.readRowHits                  3841697                       # Number of row buffer hits during reads
system.mem_ctrls.writeRowHits                 1922544                       # Number of row buffer hits during writes
system.mem_ctrls.readRowHitRate                 92.26                       # Row buffer hit rate for reads
system.mem_ctrls.writeRowHitRate                93.04                       # Row buffer hit rate for writes
system.mem_ctrls.avgGap                      75865.99                       # Average gap between requests
system.mem_ctrls.pageHitRate                    92.51                       # Row buffer hit rate, read and write combined
system.mem_ctrls_0.actEnergy               1762145280                       # Energy for activate commands per rank (pJ)
system.mem_ctrls_0.preEnergy                961488000                       # Energy for precharge commands per rank (pJ)
system.mem_ctrls_0.readEnergy             16232314800                       # Energy for read commands per rank (pJ)
system.mem_ctrls_0.writeEnergy             6688442160                       # Energy for write commands per rank (pJ)
system.mem_ctrls_0.refreshEnergy          30873660480                       # Energy for refresh commands per rank (pJ)
system.mem_ctrls_0.actBackEnergy         143272133685                       # Energy for active background per rank (pJ)
system.mem_ctrls_0.preBackEnergy         157935436500                       # Energy for precharge background per rank (pJ)
system.mem_ctrls_0.totalEnergy           357725620905                       # Total energy per rank (pJ)
system.mem_ctrls_0.averagePower            756.790289                       # Core power per rank (mW)
system.mem_ctrls_0.memoryStateTime::IDLE 260273511000                       # Time in different power states
system.mem_ctrls_0.memoryStateTime::REF   15784080000                       # Time in different power states
system.mem_ctrls_0.memoryStateTime::PRE_PDN            0                       # Time in different power states
system.mem_ctrls_0.memoryStateTime::ACT  196631992000                       # Time in different power states
system.mem_ctrls_0.memoryStateTime::ACT_PDN            0                       # Time in different power states
system.mem_ctrls_1.actEnergy               1763347320                       # Energy for activate commands per rank (pJ)
system.mem_ctrls_1.preEnergy                962143875                       # Energy for precharge commands per rank (pJ)
system.mem_ctrls_1.readEnergy             16248078600                       # Energy for read commands per rank (pJ)
system.mem_ctrls_1.writeEnergy             6701596560                       # Energy for write commands per rank (pJ)
system.mem_ctrls_1.refreshEnergy          30873660480                       # Energy for refresh commands per rank (pJ)
system.mem_ctrls_1.actBackEnergy         143533665360                       # Energy for active background per rank (pJ)
system.mem_ctrls_1.preBackEnergy         157706031000                       # Energy for precharge background per rank (pJ)
system.mem_ctrls_1.totalEnergy           357788523195                       # Total energy per rank (pJ)
system.mem_ctrls_1.averagePower            756.923340                       # Core power per rank (mW)
system.mem_ctrls_1.memoryStateTime::IDLE 259881503250                       # Time in different power states
system.mem_ctrls_1.memoryStateTime::REF   15784080000                       # Time in different power states
system.mem_ctrls_1.memoryStateTime::PRE_PDN            0                       # Time in different power states
system.mem_ctrls_1.memoryStateTime::ACT  197024925750                       # Time in different power states
system.mem_ctrls_1.memoryStateTime::ACT_PDN            0                       # Time in different power states
system.cpu_voltage_domain.voltage                   1                       # Voltage in Volts
system.cpu_clk_domain.clock                       500                       # Clock period in ticks
system.cpu.apic_clk_domain.clock                 8000                       # Clock period in ticks
system.cpu.workload.num_syscalls                  108                       # Number of system calls
system.cpu.numCycles                        945381941                       # number of cpu cycles simulated
system.cpu.numWorkItemsStarted                      0                       # number of work items this cpu started
system.cpu.numWorkItemsCompleted                    0                       # number of work items this cpu completed
system.cpu.committedInsts                    50000000                       # Number of instructions committed
system.cpu.committedOps                      95981250                       # Number of ops (including micro ops) committed
system.cpu.num_int_alu_accesses              95975785                       # Number of integer alu accesses
system.cpu.num_fp_alu_accesses               51833393                       # Number of float alu accesses
system.cpu.num_func_calls                        7602                       # number of times a function call or return occured
system.cpu.num_conditional_control_insts      6532565                       # number of instructions that are conditional controls
system.cpu.num_int_insts                     95975785                       # number of integer instructions
system.cpu.num_fp_insts                      51833393                       # number of float instructions
system.cpu.num_int_register_reads           219093278                       # number of times the integer registers were read
system.cpu.num_int_register_writes           37404612                       # number of times the integer registers were written
system.cpu.num_fp_register_reads             51836929                       # number of times the floating registers were read
system.cpu.num_fp_register_writes                4221                       # number of times the floating registers were written
system.cpu.num_cc_register_reads             34496135                       # number of times the CC registers were read
system.cpu.num_cc_register_writes            29304313                       # number of times the CC registers were written
system.cpu.num_mem_refs                      53378424                       # number of memory refs
system.cpu.num_load_insts                     1350127                       # Number of load instructions
system.cpu.num_store_insts                   52028297                       # Number of store instructions
system.cpu.num_idle_cycles                          0                       # Number of idle cycles
system.cpu.num_busy_cycles                  945381941                       # Number of busy cycles
system.cpu.not_idle_fraction                        1                       # Percentage of non-idle cycles
system.cpu.idle_fraction                            0                       # Percentage of idle cycles
system.cpu.Branches                           6543945                       # Number of branches fetched
system.cpu.op_class::No_OpClass                  1613      0.00%      0.00% # Class of executed instruction
system.cpu.op_class::IntAlu                  42596797     44.38%     44.38% # Class of executed instruction
system.cpu.op_class::IntMult                      725      0.00%     44.38% # Class of executed instruction
system.cpu.op_class::IntDiv                        21      0.00%     44.38% # Class of executed instruction
system.cpu.op_class::FloatAdd                    3670      0.00%     44.39% # Class of executed instruction
system.cpu.op_class::FloatCmp                       0      0.00%     44.39% # Class of executed instruction
system.cpu.op_class::FloatCvt                       0      0.00%     44.39% # Class of executed instruction
system.cpu.op_class::FloatMult                      0      0.00%     44.39% # Class of executed instruction
system.cpu.op_class::FloatDiv                       0      0.00%     44.39% # Class of executed instruction
system.cpu.op_class::FloatSqrt                      0      0.00%     44.39% # Class of executed instruction
system.cpu.op_class::SimdAdd                        0      0.00%     44.39% # Class of executed instruction
system.cpu.op_class::SimdAddAcc                     0      0.00%     44.39% # Class of executed instruction
system.cpu.op_class::SimdAlu                        0      0.00%     44.39% # Class of executed instruction
system.cpu.op_class::SimdCmp                        0      0.00%     44.39% # Class of executed instruction
system.cpu.op_class::SimdCvt                        0      0.00%     44.39% # Class of executed instruction
system.cpu.op_class::SimdMisc                       0      0.00%     44.39% # Class of executed instruction
system.cpu.op_class::SimdMult                       0      0.00%     44.39% # Class of executed instruction
system.cpu.op_class::SimdMultAcc                    0      0.00%     44.39% # Class of executed instruction
system.cpu.op_class::SimdShift                      0      0.00%     44.39% # Class of executed instruction
system.cpu.op_class::SimdShiftAcc                   0      0.00%     44.39% # Class of executed instruction
system.cpu.op_class::SimdSqrt                       0      0.00%     44.39% # Class of executed instruction
system.cpu.op_class::SimdFloatAdd                   0      0.00%     44.39% # Class of executed instruction
system.cpu.op_class::SimdFloatAlu                   0      0.00%     44.39% # Class of executed instruction
system.cpu.op_class::SimdFloatCmp                   0      0.00%     44.39% # Class of executed instruction
system.cpu.op_class::SimdFloatCvt                   0      0.00%     44.39% # Class of executed instruction
system.cpu.op_class::SimdFloatDiv                   0      0.00%     44.39% # Class of executed instruction
system.cpu.op_class::SimdFloatMisc                  0      0.00%     44.39% # Class of executed instruction
system.cpu.op_class::SimdFloatMult                  0      0.00%     44.39% # Class of executed instruction
system.cpu.op_class::SimdFloatMultAcc               0      0.00%     44.39% # Class of executed instruction
system.cpu.op_class::SimdFloatSqrt                  0      0.00%     44.39% # Class of executed instruction
system.cpu.op_class::MemRead                  1350127      1.41%     45.79% # Class of executed instruction
system.cpu.op_class::MemWrite                52028297     54.21%    100.00% # Class of executed instruction
system.cpu.op_class::IprAccess                      0      0.00%    100.00% # Class of executed instruction
system.cpu.op_class::InstPrefetch                   0      0.00%    100.00% # Class of executed instruction
system.cpu.op_class::total                   95981250                       # Class of executed instruction
system.cpu.dcache.tags.replacements           6479845                       # number of replacements
system.cpu.dcache.tags.tagsinuse          2039.504825                       # Cycle average of tags in use
system.cpu.dcache.tags.total_refs            46896545                       # Total number of references to valid blocks.
system.cpu.dcache.tags.sampled_refs           6481893                       # Sample count of references to valid blocks.
system.cpu.dcache.tags.avg_refs              7.235008                       # Average number of references to valid blocks.
system.cpu.dcache.tags.warmup_cycle        7641223500                       # Cycle when the warmup percentage was hit.
system.cpu.dcache.tags.occ_blocks::cpu.data  2039.504825                       # Average occupied blocks per requestor
system.cpu.dcache.tags.occ_percent::cpu.data     0.995852                       # Average percentage of cache occupancy
system.cpu.dcache.tags.occ_percent::total     0.995852                       # Average percentage of cache occupancy
system.cpu.dcache.tags.occ_task_id_blocks::1024         2048                       # Occupied blocks per task id
system.cpu.dcache.tags.age_task_id_blocks_1024::0          102                       # Occupied blocks per task id
system.cpu.dcache.tags.age_task_id_blocks_1024::1          912                       # Occupied blocks per task id
system.cpu.dcache.tags.age_task_id_blocks_1024::2         1034                       # Occupied blocks per task id
system.cpu.dcache.tags.occ_task_id_percent::1024            1                       # Percentage of cache occupancy per task id
system.cpu.dcache.tags.tag_accesses         113238769                       # Number of tag accesses
system.cpu.dcache.tags.data_accesses        113238769                       # Number of data accesses
system.cpu.dcache.ReadReq_hits::cpu.data      1349786                       # number of ReadReq hits
system.cpu.dcache.ReadReq_hits::total         1349786                       # number of ReadReq hits
system.cpu.dcache.WriteReq_hits::cpu.data     45546759                       # number of WriteReq hits
system.cpu.dcache.WriteReq_hits::total       45546759                       # number of WriteReq hits
system.cpu.dcache.demand_hits::cpu.data      46896545                       # number of demand (read+write) hits
system.cpu.dcache.demand_hits::total         46896545                       # number of demand (read+write) hits
system.cpu.dcache.overall_hits::cpu.data     46896545                       # number of overall hits
system.cpu.dcache.overall_hits::total        46896545                       # number of overall hits
system.cpu.dcache.ReadReq_misses::cpu.data          345                       # number of ReadReq misses
system.cpu.dcache.ReadReq_misses::total           345                       # number of ReadReq misses
system.cpu.dcache.WriteReq_misses::cpu.data      6481548                       # number of WriteReq misses
system.cpu.dcache.WriteReq_misses::total      6481548                       # number of WriteReq misses
system.cpu.dcache.demand_misses::cpu.data      6481893                       # number of demand (read+write) misses
system.cpu.dcache.demand_misses::total        6481893                       # number of demand (read+write) misses
system.cpu.dcache.overall_misses::cpu.data      6481893                       # number of overall misses
system.cpu.dcache.overall_misses::total       6481893                       # number of overall misses
system.cpu.dcache.ReadReq_miss_latency::cpu.data     28415500                       # number of ReadReq miss cycles
system.cpu.dcache.ReadReq_miss_latency::total     28415500                       # number of ReadReq miss cycles
system.cpu.dcache.WriteReq_miss_latency::cpu.data 354931712000                       # number of WriteReq miss cycles
system.cpu.dcache.WriteReq_miss_latency::total 354931712000                       # number of WriteReq miss cycles
system.cpu.dcache.demand_miss_latency::cpu.data 354960127500                       # number of demand (read+write) miss cycles
system.cpu.dcache.demand_miss_latency::total 354960127500                       # number of demand (read+write) miss cycles
system.cpu.dcache.overall_miss_latency::cpu.data 354960127500                       # number of overall miss cycles
system.cpu.dcache.overall_miss_latency::total 354960127500                       # number of overall miss cycles
system.cpu.dcache.ReadReq_accesses::cpu.data      1350131                       # number of ReadReq accesses(hits+misses)
system.cpu.dcache.ReadReq_accesses::total      1350131                       # number of ReadReq accesses(hits+misses)
system.cpu.dcache.WriteReq_accesses::cpu.data     52028307                       # number of WriteReq accesses(hits+misses)
system.cpu.dcache.WriteReq_accesses::total     52028307                       # number of WriteReq accesses(hits+misses)
system.cpu.dcache.demand_accesses::cpu.data     53378438                       # number of demand (read+write) accesses
system.cpu.dcache.demand_accesses::total     53378438                       # number of demand (read+write) accesses
system.cpu.dcache.overall_accesses::cpu.data     53378438                       # number of overall (read+write) accesses
system.cpu.dcache.overall_accesses::total     53378438                       # number of overall (read+write) accesses
system.cpu.dcache.ReadReq_miss_rate::cpu.data     0.000256                       # miss rate for ReadReq accesses
system.cpu.dcache.ReadReq_miss_rate::total     0.000256                       # miss rate for ReadReq accesses
system.cpu.dcache.WriteReq_miss_rate::cpu.data     0.124577                       # miss rate for WriteReq accesses
system.cpu.dcache.WriteReq_miss_rate::total     0.124577                       # miss rate for WriteReq accesses
system.cpu.dcache.demand_miss_rate::cpu.data     0.121433                       # miss rate for demand accesses
system.cpu.dcache.demand_miss_rate::total     0.121433                       # miss rate for demand accesses
system.cpu.dcache.overall_miss_rate::cpu.data     0.121433                       # miss rate for overall accesses
system.cpu.dcache.overall_miss_rate::total     0.121433                       # miss rate for overall accesses
system.cpu.dcache.ReadReq_avg_miss_latency::cpu.data 82363.768116                       # average ReadReq miss latency
system.cpu.dcache.ReadReq_avg_miss_latency::total 82363.768116                       # average ReadReq miss latency
system.cpu.dcache.WriteReq_avg_miss_latency::cpu.data 54760.330711                       # average WriteReq miss latency
system.cpu.dcache.WriteReq_avg_miss_latency::total 54760.330711                       # average WriteReq miss latency
system.cpu.dcache.demand_avg_miss_latency::cpu.data 54761.799909                       # average overall miss latency
system.cpu.dcache.demand_avg_miss_latency::total 54761.799909                       # average overall miss latency
system.cpu.dcache.overall_avg_miss_latency::cpu.data 54761.799909                       # average overall miss latency
system.cpu.dcache.overall_avg_miss_latency::total 54761.799909                       # average overall miss latency
system.cpu.dcache.blocked_cycles::no_mshrs            0                       # number of cycles access was blocked
system.cpu.dcache.blocked_cycles::no_targets            0                       # number of cycles access was blocked
system.cpu.dcache.blocked::no_mshrs                 0                       # number of cycles access was blocked
system.cpu.dcache.blocked::no_targets               0                       # number of cycles access was blocked
system.cpu.dcache.avg_blocked_cycles::no_mshrs          nan                       # average number of cycles each access was blocked
system.cpu.dcache.avg_blocked_cycles::no_targets          nan                       # average number of cycles each access was blocked
system.cpu.dcache.fast_writes                       0                       # number of fast writes performed
system.cpu.dcache.cache_copies                      0                       # number of cache copies performed
system.cpu.dcache.writebacks::writebacks      6479589                       # number of writebacks
system.cpu.dcache.writebacks::total           6479589                       # number of writebacks
system.cpu.dcache.ReadReq_mshr_misses::cpu.data          345                       # number of ReadReq MSHR misses
system.cpu.dcache.ReadReq_mshr_misses::total          345                       # number of ReadReq MSHR misses
system.cpu.dcache.WriteReq_mshr_misses::cpu.data      6481548                       # number of WriteReq MSHR misses
system.cpu.dcache.WriteReq_mshr_misses::total      6481548                       # number of WriteReq MSHR misses
system.cpu.dcache.demand_mshr_misses::cpu.data      6481893                       # number of demand (read+write) MSHR misses
system.cpu.dcache.demand_mshr_misses::total      6481893                       # number of demand (read+write) MSHR misses
system.cpu.dcache.overall_mshr_misses::cpu.data      6481893                       # number of overall MSHR misses
system.cpu.dcache.overall_mshr_misses::total      6481893                       # number of overall MSHR misses
system.cpu.dcache.ReadReq_mshr_miss_latency::cpu.data     28070500                       # number of ReadReq MSHR miss cycles
system.cpu.dcache.ReadReq_mshr_miss_latency::total     28070500                       # number of ReadReq MSHR miss cycles
system.cpu.dcache.WriteReq_mshr_miss_latency::cpu.data 348450164000                       # number of WriteReq MSHR miss cycles
system.cpu.dcache.WriteReq_mshr_miss_latency::total 348450164000                       # number of WriteReq MSHR miss cycles
system.cpu.dcache.demand_mshr_miss_latency::cpu.data 348478234500                       # number of demand (read+write) MSHR miss cycles
system.cpu.dcache.demand_mshr_miss_latency::total 348478234500                       # number of demand (read+write) MSHR miss cycles
system.cpu.dcache.overall_mshr_miss_latency::cpu.data 348478234500                       # number of overall MSHR miss cycles
system.cpu.dcache.overall_mshr_miss_latency::total 348478234500                       # number of overall MSHR miss cycles
system.cpu.dcache.ReadReq_mshr_miss_rate::cpu.data     0.000256                       # mshr miss rate for ReadReq accesses
system.cpu.dcache.ReadReq_mshr_miss_rate::total     0.000256                       # mshr miss rate for ReadReq accesses
system.cpu.dcache.WriteReq_mshr_miss_rate::cpu.data     0.124577                       # mshr miss rate for WriteReq accesses
system.cpu.dcache.WriteReq_mshr_miss_rate::total     0.124577                       # mshr miss rate for WriteReq accesses
system.cpu.dcache.demand_mshr_miss_rate::cpu.data     0.121433                       # mshr miss rate for demand accesses
system.cpu.dcache.demand_mshr_miss_rate::total     0.121433                       # mshr miss rate for demand accesses
system.cpu.dcache.overall_mshr_miss_rate::cpu.data     0.121433                       # mshr miss rate for overall accesses
system.cpu.dcache.overall_mshr_miss_rate::total     0.121433                       # mshr miss rate for overall accesses
system.cpu.dcache.ReadReq_avg_mshr_miss_latency::cpu.data 81363.768116                       # average ReadReq mshr miss latency
system.cpu.dcache.ReadReq_avg_mshr_miss_latency::total 81363.768116                       # average ReadReq mshr miss latency
system.cpu.dcache.WriteReq_avg_mshr_miss_latency::cpu.data 53760.330711                       # average WriteReq mshr miss latency
system.cpu.dcache.WriteReq_avg_mshr_miss_latency::total 53760.330711                       # average WriteReq mshr miss latency
system.cpu.dcache.demand_avg_mshr_miss_latency::cpu.data 53761.799909                       # average overall mshr miss latency
system.cpu.dcache.demand_avg_mshr_miss_latency::total 53761.799909                       # average overall mshr miss latency
system.cpu.dcache.overall_avg_mshr_miss_latency::cpu.data 53761.799909                       # average overall mshr miss latency
system.cpu.dcache.overall_avg_mshr_miss_latency::total 53761.799909                       # average overall mshr miss latency
system.cpu.dcache.no_allocate_misses                0                       # Number of misses that were no-allocate
system.cpu.dtb_walker_cache.tags.replacements            0                       # number of replacements
system.cpu.dtb_walker_cache.tags.tagsinuse            0                       # Cycle average of tags in use
system.cpu.dtb_walker_cache.tags.total_refs            0                       # Total number of references to valid blocks.
system.cpu.dtb_walker_cache.tags.sampled_refs            0                       # Sample count of references to valid blocks.
system.cpu.dtb_walker_cache.tags.avg_refs          nan                       # Average number of references to valid blocks.
system.cpu.dtb_walker_cache.tags.warmup_cycle            0                       # Cycle when the warmup percentage was hit.
system.cpu.dtb_walker_cache.tags.tag_accesses            0                       # Number of tag accesses
system.cpu.dtb_walker_cache.tags.data_accesses            0                       # Number of data accesses
system.cpu.dtb_walker_cache.blocked_cycles::no_mshrs            0                       # number of cycles access was blocked
system.cpu.dtb_walker_cache.blocked_cycles::no_targets            0                       # number of cycles access was blocked
system.cpu.dtb_walker_cache.blocked::no_mshrs            0                       # number of cycles access was blocked
system.cpu.dtb_walker_cache.blocked::no_targets            0                       # number of cycles access was blocked
system.cpu.dtb_walker_cache.avg_blocked_cycles::no_mshrs          nan                       # average number of cycles each access was blocked
system.cpu.dtb_walker_cache.avg_blocked_cycles::no_targets          nan                       # average number of cycles each access was blocked
system.cpu.dtb_walker_cache.fast_writes             0                       # number of fast writes performed
system.cpu.dtb_walker_cache.cache_copies            0                       # number of cache copies performed
system.cpu.dtb_walker_cache.no_allocate_misses            0                       # Number of misses that were no-allocate
system.cpu.icache.tags.replacements                65                       # number of replacements
system.cpu.icache.tags.tagsinuse           471.116967                       # Cycle average of tags in use
system.cpu.icache.tags.total_refs            70767702                       # Total number of references to valid blocks.
system.cpu.icache.tags.sampled_refs               835                       # Sample count of references to valid blocks.
system.cpu.icache.tags.avg_refs          84751.738922                       # Average number of references to valid blocks.
system.cpu.icache.tags.warmup_cycle                 0                       # Cycle when the warmup percentage was hit.
system.cpu.icache.tags.occ_blocks::cpu.inst   471.116967                       # Average occupied blocks per requestor
system.cpu.icache.tags.occ_percent::cpu.inst     0.230038                       # Average percentage of cache occupancy
system.cpu.icache.tags.occ_percent::total     0.230038                       # Average percentage of cache occupancy
system.cpu.icache.tags.occ_task_id_blocks::1024          770                       # Occupied blocks per task id
system.cpu.icache.tags.age_task_id_blocks_1024::4          770                       # Occupied blocks per task id
system.cpu.icache.tags.occ_task_id_percent::1024     0.375977                       # Percentage of cache occupancy per task id
system.cpu.icache.tags.tag_accesses         141537909                       # Number of tag accesses
system.cpu.icache.tags.data_accesses        141537909                       # Number of data accesses
system.cpu.icache.ReadReq_hits::cpu.inst     70767702                       # number of ReadReq hits
system.cpu.icache.ReadReq_hits::total        70767702                       # number of ReadReq hits
system.cpu.icache.demand_hits::cpu.inst      70767702                       # number of demand (read+write) hits
system.cpu.icache.demand_hits::total         70767702                       # number of demand (read+write) hits
system.cpu.icache.overall_hits::cpu.inst     70767702                       # number of overall hits
system.cpu.icache.overall_hits::total        70767702                       # number of overall hits
system.cpu.icache.ReadReq_misses::cpu.inst          835                       # number of ReadReq misses
system.cpu.icache.ReadReq_misses::total           835                       # number of ReadReq misses
system.cpu.icache.demand_misses::cpu.inst          835                       # number of demand (read+write) misses
system.cpu.icache.demand_misses::total            835                       # number of demand (read+write) misses
system.cpu.icache.overall_misses::cpu.inst          835                       # number of overall misses
system.cpu.icache.overall_misses::total           835                       # number of overall misses
system.cpu.icache.ReadReq_miss_latency::cpu.inst     66704500                       # number of ReadReq miss cycles
system.cpu.icache.ReadReq_miss_latency::total     66704500                       # number of ReadReq miss cycles
system.cpu.icache.demand_miss_latency::cpu.inst     66704500                       # number of demand (read+write) miss cycles
system.cpu.icache.demand_miss_latency::total     66704500                       # number of demand (read+write) miss cycles
system.cpu.icache.overall_miss_latency::cpu.inst     66704500                       # number of overall miss cycles
system.cpu.icache.overall_miss_latency::total     66704500                       # number of overall miss cycles
system.cpu.icache.ReadReq_accesses::cpu.inst     70768537                       # number of ReadReq accesses(hits+misses)
system.cpu.icache.ReadReq_accesses::total     70768537                       # number of ReadReq accesses(hits+misses)
system.cpu.icache.demand_accesses::cpu.inst     70768537                       # number of demand (read+write) accesses
system.cpu.icache.demand_accesses::total     70768537                       # number of demand (read+write) accesses
system.cpu.icache.overall_accesses::cpu.inst     70768537                       # number of overall (read+write) accesses
system.cpu.icache.overall_accesses::total     70768537                       # number of overall (read+write) accesses
system.cpu.icache.ReadReq_miss_rate::cpu.inst     0.000012                       # miss rate for ReadReq accesses
system.cpu.icache.ReadReq_miss_rate::total     0.000012                       # miss rate for ReadReq accesses
system.cpu.icache.demand_miss_rate::cpu.inst     0.000012                       # miss rate for demand accesses
system.cpu.icache.demand_miss_rate::total     0.000012                       # miss rate for demand accesses
system.cpu.icache.overall_miss_rate::cpu.inst     0.000012                       # miss rate for overall accesses
system.cpu.icache.overall_miss_rate::total     0.000012                       # miss rate for overall accesses
system.cpu.icache.ReadReq_avg_miss_latency::cpu.inst 79885.628743                       # average ReadReq miss latency
system.cpu.icache.ReadReq_avg_miss_latency::total 79885.628743                       # average ReadReq miss latency
system.cpu.icache.demand_avg_miss_latency::cpu.inst 79885.628743                       # average overall miss latency
system.cpu.icache.demand_avg_miss_latency::total 79885.628743                       # average overall miss latency
system.cpu.icache.overall_avg_miss_latency::cpu.inst 79885.628743                       # average overall miss latency
system.cpu.icache.overall_avg_miss_latency::total 79885.628743                       # average overall miss latency
system.cpu.icache.blocked_cycles::no_mshrs            0                       # number of cycles access was blocked
system.cpu.icache.blocked_cycles::no_targets            0                       # number of cycles access was blocked
system.cpu.icache.blocked::no_mshrs                 0                       # number of cycles access was blocked
system.cpu.icache.blocked::no_targets               0                       # number of cycles access was blocked
system.cpu.icache.avg_blocked_cycles::no_mshrs          nan                       # average number of cycles each access was blocked
system.cpu.icache.avg_blocked_cycles::no_targets          nan                       # average number of cycles each access was blocked
system.cpu.icache.fast_writes                       0                       # number of fast writes performed
system.cpu.icache.cache_copies                      0                       # number of cache copies performed
system.cpu.icache.writebacks::writebacks           65                       # number of writebacks
system.cpu.icache.writebacks::total                65                       # number of writebacks
system.cpu.icache.ReadReq_mshr_misses::cpu.inst          835                       # number of ReadReq MSHR misses
system.cpu.icache.ReadReq_mshr_misses::total          835                       # number of ReadReq MSHR misses
system.cpu.icache.demand_mshr_misses::cpu.inst          835                       # number of demand (read+write) MSHR misses
system.cpu.icache.demand_mshr_misses::total          835                       # number of demand (read+write) MSHR misses
system.cpu.icache.overall_mshr_misses::cpu.inst          835                       # number of overall MSHR misses
system.cpu.icache.overall_mshr_misses::total          835                       # number of overall MSHR misses
system.cpu.icache.ReadReq_mshr_miss_latency::cpu.inst     65869500                       # number of ReadReq MSHR miss cycles
system.cpu.icache.ReadReq_mshr_miss_latency::total     65869500                       # number of ReadReq MSHR miss cycles
system.cpu.icache.demand_mshr_miss_latency::cpu.inst     65869500                       # number of demand (read+write) MSHR miss cycles
system.cpu.icache.demand_mshr_miss_latency::total     65869500                       # number of demand (read+write) MSHR miss cycles
system.cpu.icache.overall_mshr_miss_latency::cpu.inst     65869500                       # number of overall MSHR miss cycles
system.cpu.icache.overall_mshr_miss_latency::total     65869500                       # number of overall MSHR miss cycles
system.cpu.icache.ReadReq_mshr_miss_rate::cpu.inst     0.000012                       # mshr miss rate for ReadReq accesses
system.cpu.icache.ReadReq_mshr_miss_rate::total     0.000012                       # mshr miss rate for ReadReq accesses
system.cpu.icache.demand_mshr_miss_rate::cpu.inst     0.000012                       # mshr miss rate for demand accesses
system.cpu.icache.demand_mshr_miss_rate::total     0.000012                       # mshr miss rate for demand accesses
system.cpu.icache.overall_mshr_miss_rate::cpu.inst     0.000012                       # mshr miss rate for overall accesses
system.cpu.icache.overall_mshr_miss_rate::total     0.000012                       # mshr miss rate for overall accesses
system.cpu.icache.ReadReq_avg_mshr_miss_latency::cpu.inst 78885.628743                       # average ReadReq mshr miss latency
system.cpu.icache.ReadReq_avg_mshr_miss_latency::total 78885.628743                       # average ReadReq mshr miss latency
system.cpu.icache.demand_avg_mshr_miss_latency::cpu.inst 78885.628743                       # average overall mshr miss latency
system.cpu.icache.demand_avg_mshr_miss_latency::total 78885.628743                       # average overall mshr miss latency
system.cpu.icache.overall_avg_mshr_miss_latency::cpu.inst 78885.628743                       # average overall mshr miss latency
system.cpu.icache.overall_avg_mshr_miss_latency::total 78885.628743                       # average overall mshr miss latency
system.cpu.icache.no_allocate_misses                0                       # Number of misses that were no-allocate
system.cpu.itb_walker_cache.tags.replacements            0                       # number of replacements
system.cpu.itb_walker_cache.tags.tagsinuse            0                       # Cycle average of tags in use
system.cpu.itb_walker_cache.tags.total_refs            0                       # Total number of references to valid blocks.
system.cpu.itb_walker_cache.tags.sampled_refs            0                       # Sample count of references to valid blocks.
system.cpu.itb_walker_cache.tags.avg_refs          nan                       # Average number of references to valid blocks.
system.cpu.itb_walker_cache.tags.warmup_cycle            0                       # Cycle when the warmup percentage was hit.
system.cpu.itb_walker_cache.tags.tag_accesses            0                       # Number of tag accesses
system.cpu.itb_walker_cache.tags.data_accesses            0                       # Number of data accesses
system.cpu.itb_walker_cache.blocked_cycles::no_mshrs            0                       # number of cycles access was blocked
system.cpu.itb_walker_cache.blocked_cycles::no_targets            0                       # number of cycles access was blocked
system.cpu.itb_walker_cache.blocked::no_mshrs            0                       # number of cycles access was blocked
system.cpu.itb_walker_cache.blocked::no_targets            0                       # number of cycles access was blocked
system.cpu.itb_walker_cache.avg_blocked_cycles::no_mshrs          nan                       # average number of cycles each access was blocked
system.cpu.itb_walker_cache.avg_blocked_cycles::no_targets          nan                       # average number of cycles each access was blocked
system.cpu.itb_walker_cache.fast_writes             0                       # number of fast writes performed
system.cpu.itb_walker_cache.cache_copies            0                       # number of cache copies performed
system.cpu.itb_walker_cache.no_allocate_misses            0                       # Number of misses that were no-allocate
system.l2.tags.replacements                   2067133                       # number of replacements
system.l2.tags.tagsinuse                 1636580.473739                       # Cycle average of tags in use
system.l2.tags.total_refs                     2318922                       # Total number of references to valid blocks.
system.l2.tags.sampled_refs                   4162167                       # Sample count of references to valid blocks.
system.l2.tags.avg_refs                      0.557143                       # Average number of references to valid blocks.
system.l2.tags.warmup_cycle                         0                       # Cycle when the warmup percentage was hit.
system.l2.tags.occ_blocks::writebacks    1636287.006763                       # Average occupied blocks per requestor
system.l2.tags.occ_blocks::cpu.inst        217.642824                       # Average occupied blocks per requestor
system.l2.tags.occ_blocks::cpu.data         75.824276                       # Average occupied blocks per requestor
system.l2.tags.occ_percent::writebacks       0.780242                       # Average percentage of cache occupancy
system.l2.tags.occ_percent::cpu.inst         0.000104                       # Average percentage of cache occupancy
system.l2.tags.occ_percent::cpu.data         0.000036                       # Average percentage of cache occupancy
system.l2.tags.occ_percent::total            0.780382                       # Average percentage of cache occupancy
system.l2.tags.occ_task_id_blocks::1024       2095034                       # Occupied blocks per task id
system.l2.tags.age_task_id_blocks_1024::0          102                       # Occupied blocks per task id
system.l2.tags.age_task_id_blocks_1024::1          912                       # Occupied blocks per task id
system.l2.tags.age_task_id_blocks_1024::2         9137                       # Occupied blocks per task id
system.l2.tags.age_task_id_blocks_1024::3        91402                       # Occupied blocks per task id
system.l2.tags.age_task_id_blocks_1024::4      1993481                       # Occupied blocks per task id
system.l2.tags.occ_task_id_percent::1024     0.998990                       # Percentage of cache occupancy per task id
system.l2.tags.tag_accesses                  23606352                       # Number of tag accesses
system.l2.tags.data_accesses                 23606352                       # Number of data accesses
system.l2.WritebackDirty_hits::writebacks      6479589                       # number of WritebackDirty hits
system.l2.WritebackDirty_hits::total          6479589                       # number of WritebackDirty hits
system.l2.WritebackClean_hits::writebacks           65                       # number of WritebackClean hits
system.l2.WritebackClean_hits::total               65                       # number of WritebackClean hits
system.l2.ReadExReq_hits::cpu.data            2318485                       # number of ReadExReq hits
system.l2.ReadExReq_hits::total               2318485                       # number of ReadExReq hits
system.l2.ReadCleanReq_hits::cpu.inst              34                       # number of ReadCleanReq hits
system.l2.ReadCleanReq_hits::total                 34                       # number of ReadCleanReq hits
system.l2.ReadSharedReq_hits::cpu.data             24                       # number of ReadSharedReq hits
system.l2.ReadSharedReq_hits::total                24                       # number of ReadSharedReq hits
system.l2.demand_hits::cpu.inst                    34                       # number of demand (read+write) hits
system.l2.demand_hits::cpu.data               2318509                       # number of demand (read+write) hits
system.l2.demand_hits::total                  2318543                       # number of demand (read+write) hits
system.l2.overall_hits::cpu.inst                   34                       # number of overall hits
system.l2.overall_hits::cpu.data              2318509                       # number of overall hits
system.l2.overall_hits::total                 2318543                       # number of overall hits
system.l2.ReadExReq_misses::cpu.data          4163063                       # number of ReadExReq misses
system.l2.ReadExReq_misses::total             4163063                       # number of ReadExReq misses
system.l2.ReadCleanReq_misses::cpu.inst           801                       # number of ReadCleanReq misses
system.l2.ReadCleanReq_misses::total              801                       # number of ReadCleanReq misses
system.l2.ReadSharedReq_misses::cpu.data          321                       # number of ReadSharedReq misses
system.l2.ReadSharedReq_misses::total             321                       # number of ReadSharedReq misses
system.l2.demand_misses::cpu.inst                 801                       # number of demand (read+write) misses
system.l2.demand_misses::cpu.data             4163384                       # number of demand (read+write) misses
system.l2.demand_misses::total                4164185                       # number of demand (read+write) misses
system.l2.overall_misses::cpu.inst                801                       # number of overall misses
system.l2.overall_misses::cpu.data            4163384                       # number of overall misses
system.l2.overall_misses::total               4164185                       # number of overall misses
system.l2.ReadExReq_miss_latency::cpu.data 314383749000                       # number of ReadExReq miss cycles
system.l2.ReadExReq_miss_latency::total  314383749000                       # number of ReadExReq miss cycles
system.l2.ReadCleanReq_miss_latency::cpu.inst     64254000                       # number of ReadCleanReq miss cycles
system.l2.ReadCleanReq_miss_latency::total     64254000                       # number of ReadCleanReq miss cycles
system.l2.ReadSharedReq_miss_latency::cpu.data     27299500                       # number of ReadSharedReq miss cycles
system.l2.ReadSharedReq_miss_latency::total     27299500                       # number of ReadSharedReq miss cycles
system.l2.demand_miss_latency::cpu.inst      64254000                       # number of demand (read+write) miss cycles
system.l2.demand_miss_latency::cpu.data  314411048500                       # number of demand (read+write) miss cycles
system.l2.demand_miss_latency::total     314475302500                       # number of demand (read+write) miss cycles
system.l2.overall_miss_latency::cpu.inst     64254000                       # number of overall miss cycles
system.l2.overall_miss_latency::cpu.data 314411048500                       # number of overall miss cycles
system.l2.overall_miss_latency::total    314475302500                       # number of overall miss cycles
system.l2.WritebackDirty_accesses::writebacks      6479589                       # number of WritebackDirty accesses(hits+misses)
system.l2.WritebackDirty_accesses::total      6479589                       # number of WritebackDirty accesses(hits+misses)
system.l2.WritebackClean_accesses::writebacks           65                       # number of WritebackClean accesses(hits+misses)
system.l2.WritebackClean_accesses::total           65                       # number of WritebackClean accesses(hits+misses)
system.l2.ReadExReq_accesses::cpu.data        6481548                       # number of ReadExReq accesses(hits+misses)
system.l2.ReadExReq_accesses::total           6481548                       # number of ReadExReq accesses(hits+misses)
system.l2.ReadCleanReq_accesses::cpu.inst          835                       # number of ReadCleanReq accesses(hits+misses)
system.l2.ReadCleanReq_accesses::total            835                       # number of ReadCleanReq accesses(hits+misses)
system.l2.ReadSharedReq_accesses::cpu.data          345                       # number of ReadSharedReq accesses(hits+misses)
system.l2.ReadSharedReq_accesses::total           345                       # number of ReadSharedReq accesses(hits+misses)
system.l2.demand_accesses::cpu.inst               835                       # number of demand (read+write) accesses
system.l2.demand_accesses::cpu.data           6481893                       # number of demand (read+write) accesses
system.l2.demand_accesses::total              6482728                       # number of demand (read+write) accesses
system.l2.overall_accesses::cpu.inst              835                       # number of overall (read+write) accesses
system.l2.overall_accesses::cpu.data          6481893                       # number of overall (read+write) accesses
system.l2.overall_accesses::total             6482728                       # number of overall (read+write) accesses
system.l2.ReadExReq_miss_rate::cpu.data      0.642295                       # miss rate for ReadExReq accesses
system.l2.ReadExReq_miss_rate::total         0.642295                       # miss rate for ReadExReq accesses
system.l2.ReadCleanReq_miss_rate::cpu.inst     0.959281                       # miss rate for ReadCleanReq accesses
system.l2.ReadCleanReq_miss_rate::total      0.959281                       # miss rate for ReadCleanReq accesses
system.l2.ReadSharedReq_miss_rate::cpu.data     0.930435                       # miss rate for ReadSharedReq accesses
system.l2.ReadSharedReq_miss_rate::total     0.930435                       # miss rate for ReadSharedReq accesses
system.l2.demand_miss_rate::cpu.inst         0.959281                       # miss rate for demand accesses
system.l2.demand_miss_rate::cpu.data         0.642310                       # miss rate for demand accesses
system.l2.demand_miss_rate::total            0.642351                       # miss rate for demand accesses
system.l2.overall_miss_rate::cpu.inst        0.959281                       # miss rate for overall accesses
system.l2.overall_miss_rate::cpu.data        0.642310                       # miss rate for overall accesses
system.l2.overall_miss_rate::total           0.642351                       # miss rate for overall accesses
system.l2.ReadExReq_avg_miss_latency::cpu.data 75517.413260                       # average ReadExReq miss latency
system.l2.ReadExReq_avg_miss_latency::total 75517.413260                       # average ReadExReq miss latency
system.l2.ReadCleanReq_avg_miss_latency::cpu.inst 80217.228464                       # average ReadCleanReq miss latency
system.l2.ReadCleanReq_avg_miss_latency::total 80217.228464                       # average ReadCleanReq miss latency
system.l2.ReadSharedReq_avg_miss_latency::cpu.data 85045.171340                       # average ReadSharedReq miss latency
system.l2.ReadSharedReq_avg_miss_latency::total 85045.171340                       # average ReadSharedReq miss latency
system.l2.demand_avg_miss_latency::cpu.inst 80217.228464                       # average overall miss latency
system.l2.demand_avg_miss_latency::cpu.data 75518.147858                       # average overall miss latency
system.l2.demand_avg_miss_latency::total 75519.051747                       # average overall miss latency
system.l2.overall_avg_miss_latency::cpu.inst 80217.228464                       # average overall miss latency
system.l2.overall_avg_miss_latency::cpu.data 75518.147858                       # average overall miss latency
system.l2.overall_avg_miss_latency::total 75519.051747                       # average overall miss latency
system.l2.blocked_cycles::no_mshrs                  0                       # number of cycles access was blocked
system.l2.blocked_cycles::no_targets                0                       # number of cycles access was blocked
system.l2.blocked::no_mshrs                         0                       # number of cycles access was blocked
system.l2.blocked::no_targets                       0                       # number of cycles access was blocked
system.l2.avg_blocked_cycles::no_mshrs            nan                       # average number of cycles each access was blocked
system.l2.avg_blocked_cycles::no_targets          nan                       # average number of cycles each access was blocked
system.l2.fast_writes                               0                       # number of fast writes performed
system.l2.cache_copies                              0                       # number of cache copies performed
system.l2.writebacks::writebacks              2066419                       # number of writebacks
system.l2.writebacks::total                   2066419                       # number of writebacks
system.l2.ReadExReq_mshr_misses::cpu.data      4163063                       # number of ReadExReq MSHR misses
system.l2.ReadExReq_mshr_misses::total        4163063                       # number of ReadExReq MSHR misses
system.l2.ReadCleanReq_mshr_misses::cpu.inst          801                       # number of ReadCleanReq MSHR misses
system.l2.ReadCleanReq_mshr_misses::total          801                       # number of ReadCleanReq MSHR misses
system.l2.ReadSharedReq_mshr_misses::cpu.data          321                       # number of ReadSharedReq MSHR misses
system.l2.ReadSharedReq_mshr_misses::total          321                       # number of ReadSharedReq MSHR misses
system.l2.demand_mshr_misses::cpu.inst            801                       # number of demand (read+write) MSHR misses
system.l2.demand_mshr_misses::cpu.data        4163384                       # number of demand (read+write) MSHR misses
system.l2.demand_mshr_misses::total           4164185                       # number of demand (read+write) MSHR misses
system.l2.overall_mshr_misses::cpu.inst           801                       # number of overall MSHR misses
system.l2.overall_mshr_misses::cpu.data       4163384                       # number of overall MSHR misses
system.l2.overall_mshr_misses::total          4164185                       # number of overall MSHR misses
system.l2.ReadExReq_mshr_miss_latency::cpu.data 272753119000                       # number of ReadExReq MSHR miss cycles
system.l2.ReadExReq_mshr_miss_latency::total 272753119000                       # number of ReadExReq MSHR miss cycles
system.l2.ReadCleanReq_mshr_miss_latency::cpu.inst     56244000                       # number of ReadCleanReq MSHR miss cycles
system.l2.ReadCleanReq_mshr_miss_latency::total     56244000                       # number of ReadCleanReq MSHR miss cycles
system.l2.ReadSharedReq_mshr_miss_latency::cpu.data     24089500                       # number of ReadSharedReq MSHR miss cycles
system.l2.ReadSharedReq_mshr_miss_latency::total     24089500                       # number of ReadSharedReq MSHR miss cycles
system.l2.demand_mshr_miss_latency::cpu.inst     56244000                       # number of demand (read+write) MSHR miss cycles
system.l2.demand_mshr_miss_latency::cpu.data 272777208500                       # number of demand (read+write) MSHR miss cycles
system.l2.demand_mshr_miss_latency::total 272833452500                       # number of demand (read+write) MSHR miss cycles
system.l2.overall_mshr_miss_latency::cpu.inst     56244000                       # number of overall MSHR miss cycles
system.l2.overall_mshr_miss_latency::cpu.data 272777208500                       # number of overall MSHR miss cycles
system.l2.overall_mshr_miss_latency::total 272833452500                       # number of overall MSHR miss cycles
system.l2.ReadExReq_mshr_miss_rate::cpu.data     0.642295                       # mshr miss rate for ReadExReq accesses
system.l2.ReadExReq_mshr_miss_rate::total     0.642295                       # mshr miss rate for ReadExReq accesses
system.l2.ReadCleanReq_mshr_miss_rate::cpu.inst     0.959281                       # mshr miss rate for ReadCleanReq accesses
system.l2.ReadCleanReq_mshr_miss_rate::total     0.959281                       # mshr miss rate for ReadCleanReq accesses
system.l2.ReadSharedReq_mshr_miss_rate::cpu.data     0.930435                       # mshr miss rate for ReadSharedReq accesses
system.l2.ReadSharedReq_mshr_miss_rate::total     0.930435                       # mshr miss rate for ReadSharedReq accesses
system.l2.demand_mshr_miss_rate::cpu.inst     0.959281                       # mshr miss rate for demand accesses
system.l2.demand_mshr_miss_rate::cpu.data     0.642310                       # mshr miss rate for demand accesses
system.l2.demand_mshr_miss_rate::total       0.642351                       # mshr miss rate for demand accesses
system.l2.overall_mshr_miss_rate::cpu.inst     0.959281                       # mshr miss rate for overall accesses
system.l2.overall_mshr_miss_rate::cpu.data     0.642310                       # mshr miss rate for overall accesses
system.l2.overall_mshr_miss_rate::total      0.642351                       # mshr miss rate for overall accesses
system.l2.ReadExReq_avg_mshr_miss_latency::cpu.data 65517.413260                       # average ReadExReq mshr miss latency
system.l2.ReadExReq_avg_mshr_miss_latency::total 65517.413260                       # average ReadExReq mshr miss latency
system.l2.ReadCleanReq_avg_mshr_miss_latency::cpu.inst 70217.228464                       # average ReadCleanReq mshr miss latency
system.l2.ReadCleanReq_avg_mshr_miss_latency::total 70217.228464                       # average ReadCleanReq mshr miss latency
system.l2.ReadSharedReq_avg_mshr_miss_latency::cpu.data 75045.171340                       # average ReadSharedReq mshr miss latency
system.l2.ReadSharedReq_avg_mshr_miss_latency::total 75045.171340                       # average ReadSharedReq mshr miss latency
system.l2.demand_avg_mshr_miss_latency::cpu.inst 70217.228464                       # average overall mshr miss latency
system.l2.demand_avg_mshr_miss_latency::cpu.data 65518.147858                       # average overall mshr miss latency
system.l2.demand_avg_mshr_miss_latency::total 65519.051747                       # average overall mshr miss latency
system.l2.overall_avg_mshr_miss_latency::cpu.inst 70217.228464                       # average overall mshr miss latency
system.l2.overall_avg_mshr_miss_latency::cpu.data 65518.147858                       # average overall mshr miss latency
system.l2.overall_avg_mshr_miss_latency::total 65519.051747                       # average overall mshr miss latency
system.l2.no_allocate_misses                        0                       # Number of misses that were no-allocate
system.membus.trans_dist::ReadResp               1122                       # Transaction distribution
system.membus.trans_dist::WritebackDirty      2066419                       # Transaction distribution
system.membus.trans_dist::CleanEvict              166                       # Transaction distribution
system.membus.trans_dist::ReadExReq           4163063                       # Transaction distribution
system.membus.trans_dist::ReadExResp          4163063                       # Transaction distribution
system.membus.trans_dist::ReadSharedReq          1122                       # Transaction distribution
system.membus.pkt_count_system.l2.mem_side::system.mem_ctrls.port     10394955                       # Packet count per connected master and slave (bytes)
system.membus.pkt_count_system.l2.mem_side::total     10394955                       # Packet count per connected master and slave (bytes)
system.membus.pkt_count::total               10394955                       # Packet count per connected master and slave (bytes)
system.membus.pkt_size_system.l2.mem_side::system.mem_ctrls.port    398758656                       # Cumulative packet size per connected master and slave (bytes)
system.membus.pkt_size_system.l2.mem_side::total    398758656                       # Cumulative packet size per connected master and slave (bytes)
system.membus.pkt_size::total               398758656                       # Cumulative packet size per connected master and slave (bytes)
system.membus.snoops                                0                       # Total snoops (count)
system.membus.snoop_fanout::samples           6230770                       # Request fanout histogram
system.membus.snoop_fanout::mean                    0                       # Request fanout histogram
system.membus.snoop_fanout::stdev                   0                       # Request fanout histogram
system.membus.snoop_fanout::underflows              0      0.00%      0.00% # Request fanout histogram
system.membus.snoop_fanout::0                 6230770    100.00%    100.00% # Request fanout histogram
system.membus.snoop_fanout::1                       0      0.00%    100.00% # Request fanout histogram
system.membus.snoop_fanout::overflows               0      0.00%    100.00% # Request fanout histogram
system.membus.snoop_fanout::min_value               0                       # Request fanout histogram
system.membus.snoop_fanout::max_value               0                       # Request fanout histogram
system.membus.snoop_fanout::total             6230770                       # Request fanout histogram
system.membus.reqLayer2.occupancy         14496453000                       # Layer occupancy (ticks)
system.membus.reqLayer2.utilization               3.1                       # Layer utilization (%)
system.membus.respLayer1.occupancy        21917824000                       # Layer occupancy (ticks)
system.membus.respLayer1.utilization              4.6                       # Layer utilization (%)
system.tol2bus.snoop_filter.tot_requests     12962638                       # Total number of requests made to the snoop filter.
system.tol2bus.snoop_filter.hit_single_requests      6479910                       # Number of requests hitting in the snoop filter with a single holder of the requested data.
system.tol2bus.snoop_filter.hit_multi_requests            1                       # Number of requests hitting in the snoop filter with multiple (>1) holders of the requested data.
system.tol2bus.snoop_filter.tot_snoops            548                       # Total number of snoops made to the snoop filter.
system.tol2bus.snoop_filter.hit_single_snoops          548                       # Number of snoops hitting in the snoop filter with a single holder of the requested data.
system.tol2bus.snoop_filter.hit_multi_snoops            0                       # Number of snoops hitting in the snoop filter with multiple (>1) holders of the requested data.
system.tol2bus.trans_dist::ReadResp              1180                       # Transaction distribution
system.tol2bus.trans_dist::WritebackDirty      8546008                       # Transaction distribution
system.tol2bus.trans_dist::WritebackClean           65                       # Transaction distribution
system.tol2bus.trans_dist::CleanEvict             969                       # Transaction distribution
system.tol2bus.trans_dist::ReadExReq          6481548                       # Transaction distribution
system.tol2bus.trans_dist::ReadExResp         6481548                       # Transaction distribution
system.tol2bus.trans_dist::ReadCleanReq           835                       # Transaction distribution
system.tol2bus.trans_dist::ReadSharedReq          345                       # Transaction distribution
system.tol2bus.pkt_count_system.cpu.icache.mem_side::system.l2.cpu_side         1735                       # Packet count per connected master and slave (bytes)
system.tol2bus.pkt_count_system.cpu.dcache.mem_side::system.l2.cpu_side     19443630                       # Packet count per connected master and slave (bytes)
system.tol2bus.pkt_count::total              19445365                       # Packet count per connected master and slave (bytes)
system.tol2bus.pkt_size_system.cpu.icache.mem_side::system.l2.cpu_side        57600                       # Cumulative packet size per connected master and slave (bytes)
system.tol2bus.pkt_size_system.cpu.dcache.mem_side::system.l2.cpu_side    829534848                       # Cumulative packet size per connected master and slave (bytes)
system.tol2bus.pkt_size::total              829592448                       # Cumulative packet size per connected master and slave (bytes)
system.tol2bus.snoops                         2067133                       # Total snoops (count)
system.tol2bus.snoop_fanout::samples          8549861                       # Request fanout histogram
system.tol2bus.snoop_fanout::mean            0.000064                       # Request fanout histogram
system.tol2bus.snoop_fanout::stdev           0.008013                       # Request fanout histogram
system.tol2bus.snoop_fanout::underflows             0      0.00%      0.00% # Request fanout histogram
system.tol2bus.snoop_fanout::0                8549312     99.99%     99.99% # Request fanout histogram
system.tol2bus.snoop_fanout::1                    549      0.01%    100.00% # Request fanout histogram
system.tol2bus.snoop_fanout::2                      0      0.00%    100.00% # Request fanout histogram
system.tol2bus.snoop_fanout::3                      0      0.00%    100.00% # Request fanout histogram
system.tol2bus.snoop_fanout::4                      0      0.00%    100.00% # Request fanout histogram
system.tol2bus.snoop_fanout::overflows              0      0.00%    100.00% # Request fanout histogram
system.tol2bus.snoop_fanout::min_value              0                       # Request fanout histogram
system.tol2bus.snoop_fanout::max_value              1                       # Request fanout histogram
system.tol2bus.snoop_fanout::total            8549861                       # Request fanout histogram
system.tol2bus.reqLayer0.occupancy        12960973000                       # Layer occupancy (ticks)
system.tol2bus.reqLayer0.utilization              2.7                       # Layer utilization (%)
system.tol2bus.respLayer0.occupancy           1252500                       # Layer occupancy (ticks)
system.tol2bus.respLayer0.utilization             0.0                       # Layer utilization (%)
system.tol2bus.respLayer1.occupancy        9722839500                       # Layer occupancy (ticks)
system.tol2bus.respLayer1.utilization             2.1                       # Layer utilization (%)

---------- End Simulation Statistics   ----------
