
---------- Begin Simulation Statistics ----------
sim_seconds                                  0.644052                       # Number of seconds simulated
sim_ticks                                644051700500                       # Number of ticks simulated
final_tick                               644051700500                       # Number of ticks from beginning of simulation (restored from checkpoints and never reset)
sim_freq                                 1000000000000                       # Frequency of simulated ticks
host_inst_rate                                 104955                       # Simulator instruction rate (inst/s)
host_op_rate                                   201475                       # Simulator op (including micro ops) rate (op/s)
host_tick_rate                             1351933610                       # Simulator tick rate (ticks/s)
host_mem_usage                                 876524                       # Number of bytes of host memory used
host_seconds                                   476.39                       # Real time elapsed on the host
sim_insts                                    50000000                       # Number of instructions simulated
sim_ops                                      95981250                       # Number of ops (including micro ops) simulated
system.voltage_domain.voltage                       1                       # Voltage in Volts
system.clk_domain.clock                          1000                       # Clock period in ticks
system.mem_ctrls.bytes_read::cpu.inst           51264                       # Number of bytes read from this memory
system.mem_ctrls.bytes_read::cpu.data       414839872                       # Number of bytes read from this memory
system.mem_ctrls.bytes_read::total          414891136                       # Number of bytes read from this memory
system.mem_ctrls.bytes_inst_read::cpu.inst        51264                       # Number of instructions bytes read from this memory
system.mem_ctrls.bytes_inst_read::total         51264                       # Number of instructions bytes read from this memory
system.mem_ctrls.bytes_written::writebacks    398046016                       # Number of bytes written to this memory
system.mem_ctrls.bytes_written::total       398046016                       # Number of bytes written to this memory
system.mem_ctrls.num_reads::cpu.inst              801                       # Number of read requests responded to by this memory
system.mem_ctrls.num_reads::cpu.data          6481873                       # Number of read requests responded to by this memory
system.mem_ctrls.num_reads::total             6482674                       # Number of read requests responded to by this memory
system.mem_ctrls.num_writes::writebacks       6219469                       # Number of write requests responded to by this memory
system.mem_ctrls.num_writes::total            6219469                       # Number of write requests responded to by this memory
system.mem_ctrls.bw_read::cpu.inst              79596                       # Total read bandwidth from this memory (bytes/s)
system.mem_ctrls.bw_read::cpu.data          644109583                       # Total read bandwidth from this memory (bytes/s)
system.mem_ctrls.bw_read::total             644189179                       # Total read bandwidth from this memory (bytes/s)
system.mem_ctrls.bw_inst_read::cpu.inst         79596                       # Instruction read bandwidth from this memory (bytes/s)
system.mem_ctrls.bw_inst_read::total            79596                       # Instruction read bandwidth from this memory (bytes/s)
system.mem_ctrls.bw_write::writebacks       618034260                       # Write bandwidth from this memory (bytes/s)
system.mem_ctrls.bw_write::total            618034260                       # Write bandwidth from this memory (bytes/s)
system.mem_ctrls.bw_total::writebacks       618034260                       # Total bandwidth to/from this memory (bytes/s)
system.mem_ctrls.bw_total::cpu.inst             79596                       # Total bandwidth to/from this memory (bytes/s)
system.mem_ctrls.bw_total::cpu.data         644109583                       # Total bandwidth to/from this memory (bytes/s)
system.mem_ctrls.bw_total::total           1262223439                       # Total bandwidth to/from this memory (bytes/s)
system.mem_ctrls.readReqs                     6482674                       # Number of read requests accepted
system.mem_ctrls.writeReqs                    6219469                       # Number of write requests accepted
system.mem_ctrls.readBursts                   6482674                       # Number of DRAM read bursts, including those serviced by the write queue
system.mem_ctrls.writeBursts                  6219469                       # Number of DRAM write bursts, including those merged in the write queue
system.mem_ctrls.bytesReadDRAM              414891136                       # Total number of bytes read from DRAM
system.mem_ctrls.bytesReadWrQ                       0                       # Total number of bytes read from write queue
system.mem_ctrls.bytesWritten               398043968                       # Total number of bytes written to DRAM
system.mem_ctrls.bytesReadSys               414891136                       # Total read bytes from the system interface side
system.mem_ctrls.bytesWrittenSys            398046016                       # Total written bytes from the system interface side
system.mem_ctrls.servicedByWrQ                      0                       # Number of DRAM read bursts serviced by the write queue
system.mem_ctrls.mergedWrBursts                     0                       # Number of DRAM write bursts merged with an existing one
system.mem_ctrls.neitherReadNorWriteReqs          291                       # Number of requests that are neither read nor write
system.mem_ctrls.perBankRdBursts::0            405123                       # Per bank write bursts
system.mem_ctrls.perBankRdBursts::1            405056                       # Per bank write bursts
system.mem_ctrls.perBankRdBursts::2            405044                       # Per bank write bursts
system.mem_ctrls.perBankRdBursts::3            405057                       # Per bank write bursts
system.mem_ctrls.perBankRdBursts::4            405157                       # Per bank write bursts
system.mem_ctrls.perBankRdBursts::5            405098                       # Per bank write bursts
system.mem_ctrls.perBankRdBursts::6            404913                       # Per bank write bursts
system.mem_ctrls.perBankRdBursts::7            405002                       # Per bank write bursts
system.mem_ctrls.perBankRdBursts::8            405005                       # Per bank write bursts
system.mem_ctrls.perBankRdBursts::9            405137                       # Per bank write bursts
system.mem_ctrls.perBankRdBursts::10           405256                       # Per bank write bursts
system.mem_ctrls.perBankRdBursts::11           405381                       # Per bank write bursts
system.mem_ctrls.perBankRdBursts::12           405354                       # Per bank write bursts
system.mem_ctrls.perBankRdBursts::13           405372                       # Per bank write bursts
system.mem_ctrls.perBankRdBursts::14           405357                       # Per bank write bursts
system.mem_ctrls.perBankRdBursts::15           405362                       # Per bank write bursts
system.mem_ctrls.perBankWrBursts::0            388608                       # Per bank write bursts
system.mem_ctrls.perBankWrBursts::1            388619                       # Per bank write bursts
system.mem_ctrls.perBankWrBursts::2            388634                       # Per bank write bursts
system.mem_ctrls.perBankWrBursts::3            388575                       # Per bank write bursts
system.mem_ctrls.perBankWrBursts::4            388652                       # Per bank write bursts
system.mem_ctrls.perBankWrBursts::5            388604                       # Per bank write bursts
system.mem_ctrls.perBankWrBursts::6            388488                       # Per bank write bursts
system.mem_ctrls.perBankWrBursts::7            388527                       # Per bank write bursts
system.mem_ctrls.perBankWrBursts::8            388594                       # Per bank write bursts
system.mem_ctrls.perBankWrBursts::9            388687                       # Per bank write bursts
system.mem_ctrls.perBankWrBursts::10           388809                       # Per bank write bursts
system.mem_ctrls.perBankWrBursts::11           388964                       # Per bank write bursts
system.mem_ctrls.perBankWrBursts::12           388937                       # Per bank write bursts
system.mem_ctrls.perBankWrBursts::13           388926                       # Per bank write bursts
system.mem_ctrls.perBankWrBursts::14           388931                       # Per bank write bursts
system.mem_ctrls.perBankWrBursts::15           388882                       # Per bank write bursts
system.mem_ctrls.numRdRetry                         0                       # Number of times read queue was full causing retry
system.mem_ctrls.numWrRetry                         0                       # Number of times write queue was full causing retry
system.mem_ctrls.totGap                  644051685500                       # Total gap between requests
system.mem_ctrls.readPktSize::0                     0                       # Read request sizes (log2)
system.mem_ctrls.readPktSize::1                     0                       # Read request sizes (log2)
system.mem_ctrls.readPktSize::2                     0                       # Read request sizes (log2)
system.mem_ctrls.readPktSize::3                     0                       # Read request sizes (log2)
system.mem_ctrls.readPktSize::4                     0                       # Read request sizes (log2)
system.mem_ctrls.readPktSize::5                     0                       # Read request sizes (log2)
system.mem_ctrls.readPktSize::6               6482674                       # Read request sizes (log2)
system.mem_ctrls.writePktSize::0                    0                       # Write request sizes (log2)
system.mem_ctrls.writePktSize::1                    0                       # Write request sizes (log2)
system.mem_ctrls.writePktSize::2                    0                       # Write request sizes (log2)
system.mem_ctrls.writePktSize::3                    0                       # Write request sizes (log2)
system.mem_ctrls.writePktSize::4                    0                       # Write request sizes (log2)
system.mem_ctrls.writePktSize::5                    0                       # Write request sizes (log2)
system.mem_ctrls.writePktSize::6              6219469                       # Write request sizes (log2)
system.mem_ctrls.rdQLenPdf::0                 6482673                       # What read queue length does an incoming req see
system.mem_ctrls.rdQLenPdf::1                       1                       # What read queue length does an incoming req see
system.mem_ctrls.rdQLenPdf::2                       0                       # What read queue length does an incoming req see
system.mem_ctrls.rdQLenPdf::3                       0                       # What read queue length does an incoming req see
system.mem_ctrls.rdQLenPdf::4                       0                       # What read queue length does an incoming req see
system.mem_ctrls.rdQLenPdf::5                       0                       # What read queue length does an incoming req see
system.mem_ctrls.rdQLenPdf::6                       0                       # What read queue length does an incoming req see
system.mem_ctrls.rdQLenPdf::7                       0                       # What read queue length does an incoming req see
system.mem_ctrls.rdQLenPdf::8                       0                       # What read queue length does an incoming req see
system.mem_ctrls.rdQLenPdf::9                       0                       # What read queue length does an incoming req see
system.mem_ctrls.rdQLenPdf::10                      0                       # What read queue length does an incoming req see
system.mem_ctrls.rdQLenPdf::11                      0                       # What read queue length does an incoming req see
system.mem_ctrls.rdQLenPdf::12                      0                       # What read queue length does an incoming req see
system.mem_ctrls.rdQLenPdf::13                      0                       # What read queue length does an incoming req see
system.mem_ctrls.rdQLenPdf::14                      0                       # What read queue length does an incoming req see
system.mem_ctrls.rdQLenPdf::15                      0                       # What read queue length does an incoming req see
system.mem_ctrls.rdQLenPdf::16                      0                       # What read queue length does an incoming req see
system.mem_ctrls.rdQLenPdf::17                      0                       # What read queue length does an incoming req see
system.mem_ctrls.rdQLenPdf::18                      0                       # What read queue length does an incoming req see
system.mem_ctrls.rdQLenPdf::19                      0                       # What read queue length does an incoming req see
system.mem_ctrls.rdQLenPdf::20                      0                       # What read queue length does an incoming req see
system.mem_ctrls.rdQLenPdf::21                      0                       # What read queue length does an incoming req see
system.mem_ctrls.rdQLenPdf::22                      0                       # What read queue length does an incoming req see
system.mem_ctrls.rdQLenPdf::23                      0                       # What read queue length does an incoming req see
system.mem_ctrls.rdQLenPdf::24                      0                       # What read queue length does an incoming req see
system.mem_ctrls.rdQLenPdf::25                      0                       # What read queue length does an incoming req see
system.mem_ctrls.rdQLenPdf::26                      0                       # What read queue length does an incoming req see
system.mem_ctrls.rdQLenPdf::27                      0                       # What read queue length does an incoming req see
system.mem_ctrls.rdQLenPdf::28                      0                       # What read queue length does an incoming req see
system.mem_ctrls.rdQLenPdf::29                      0                       # What read queue length does an incoming req see
system.mem_ctrls.rdQLenPdf::30                      0                       # What read queue length does an incoming req see
system.mem_ctrls.rdQLenPdf::31                      0                       # What read queue length does an incoming req see
system.mem_ctrls.wrQLenPdf::0                       1                       # What write queue length does an incoming req see
system.mem_ctrls.wrQLenPdf::1                       1                       # What write queue length does an incoming req see
system.mem_ctrls.wrQLenPdf::2                       1                       # What write queue length does an incoming req see
system.mem_ctrls.wrQLenPdf::3                       1                       # What write queue length does an incoming req see
system.mem_ctrls.wrQLenPdf::4                       1                       # What write queue length does an incoming req see
system.mem_ctrls.wrQLenPdf::5                       1                       # What write queue length does an incoming req see
system.mem_ctrls.wrQLenPdf::6                       1                       # What write queue length does an incoming req see
system.mem_ctrls.wrQLenPdf::7                       1                       # What write queue length does an incoming req see
system.mem_ctrls.wrQLenPdf::8                       1                       # What write queue length does an incoming req see
system.mem_ctrls.wrQLenPdf::9                       1                       # What write queue length does an incoming req see
system.mem_ctrls.wrQLenPdf::10                      1                       # What write queue length does an incoming req see
system.mem_ctrls.wrQLenPdf::11                      1                       # What write queue length does an incoming req see
system.mem_ctrls.wrQLenPdf::12                      1                       # What write queue length does an incoming req see
system.mem_ctrls.wrQLenPdf::13                      1                       # What write queue length does an incoming req see
system.mem_ctrls.wrQLenPdf::14                      1                       # What write queue length does an incoming req see
system.mem_ctrls.wrQLenPdf::15                    899                       # What write queue length does an incoming req see
system.mem_ctrls.wrQLenPdf::16                    905                       # What write queue length does an incoming req see
system.mem_ctrls.wrQLenPdf::17                 386840                       # What write queue length does an incoming req see
system.mem_ctrls.wrQLenPdf::18                 388550                       # What write queue length does an incoming req see
system.mem_ctrls.wrQLenPdf::19                 388554                       # What write queue length does an incoming req see
system.mem_ctrls.wrQLenPdf::20                 388554                       # What write queue length does an incoming req see
system.mem_ctrls.wrQLenPdf::21                 388549                       # What write queue length does an incoming req see
system.mem_ctrls.wrQLenPdf::22                 388553                       # What write queue length does an incoming req see
system.mem_ctrls.wrQLenPdf::23                 388547                       # What write queue length does an incoming req see
system.mem_ctrls.wrQLenPdf::24                 388553                       # What write queue length does an incoming req see
system.mem_ctrls.wrQLenPdf::25                 391119                       # What write queue length does an incoming req see
system.mem_ctrls.wrQLenPdf::26                 388547                       # What write queue length does an incoming req see
system.mem_ctrls.wrQLenPdf::27                 388548                       # What write queue length does an incoming req see
system.mem_ctrls.wrQLenPdf::28                 388548                       # What write queue length does an incoming req see
system.mem_ctrls.wrQLenPdf::29                 388547                       # What write queue length does an incoming req see
system.mem_ctrls.wrQLenPdf::30                 388548                       # What write queue length does an incoming req see
system.mem_ctrls.wrQLenPdf::31                 388547                       # What write queue length does an incoming req see
system.mem_ctrls.wrQLenPdf::32                 388546                       # What write queue length does an incoming req see
system.mem_ctrls.wrQLenPdf::33                      0                       # What write queue length does an incoming req see
system.mem_ctrls.wrQLenPdf::34                      0                       # What write queue length does an incoming req see
system.mem_ctrls.wrQLenPdf::35                      0                       # What write queue length does an incoming req see
system.mem_ctrls.wrQLenPdf::36                      0                       # What write queue length does an incoming req see
system.mem_ctrls.wrQLenPdf::37                      0                       # What write queue length does an incoming req see
system.mem_ctrls.wrQLenPdf::38                      0                       # What write queue length does an incoming req see
system.mem_ctrls.wrQLenPdf::39                      0                       # What write queue length does an incoming req see
system.mem_ctrls.wrQLenPdf::40                      0                       # What write queue length does an incoming req see
system.mem_ctrls.wrQLenPdf::41                      0                       # What write queue length does an incoming req see
system.mem_ctrls.wrQLenPdf::42                      0                       # What write queue length does an incoming req see
system.mem_ctrls.wrQLenPdf::43                      0                       # What write queue length does an incoming req see
system.mem_ctrls.wrQLenPdf::44                      0                       # What write queue length does an incoming req see
system.mem_ctrls.wrQLenPdf::45                      0                       # What write queue length does an incoming req see
system.mem_ctrls.wrQLenPdf::46                      0                       # What write queue length does an incoming req see
system.mem_ctrls.wrQLenPdf::47                      0                       # What write queue length does an incoming req see
system.mem_ctrls.wrQLenPdf::48                      0                       # What write queue length does an incoming req see
system.mem_ctrls.wrQLenPdf::49                      0                       # What write queue length does an incoming req see
system.mem_ctrls.wrQLenPdf::50                      0                       # What write queue length does an incoming req see
system.mem_ctrls.wrQLenPdf::51                      0                       # What write queue length does an incoming req see
system.mem_ctrls.wrQLenPdf::52                      0                       # What write queue length does an incoming req see
system.mem_ctrls.wrQLenPdf::53                      0                       # What write queue length does an incoming req see
system.mem_ctrls.wrQLenPdf::54                      0                       # What write queue length does an incoming req see
system.mem_ctrls.wrQLenPdf::55                      0                       # What write queue length does an incoming req see
system.mem_ctrls.wrQLenPdf::56                      0                       # What write queue length does an incoming req see
system.mem_ctrls.wrQLenPdf::57                      0                       # What write queue length does an incoming req see
system.mem_ctrls.wrQLenPdf::58                      0                       # What write queue length does an incoming req see
system.mem_ctrls.wrQLenPdf::59                      0                       # What write queue length does an incoming req see
system.mem_ctrls.wrQLenPdf::60                      0                       # What write queue length does an incoming req see
system.mem_ctrls.wrQLenPdf::61                      0                       # What write queue length does an incoming req see
system.mem_ctrls.wrQLenPdf::62                      0                       # What write queue length does an incoming req see
system.mem_ctrls.wrQLenPdf::63                      0                       # What write queue length does an incoming req see
system.mem_ctrls.bytesPerActivate::samples       960028                       # Bytes accessed per row activation
system.mem_ctrls.bytesPerActivate::mean    846.781702                       # Bytes accessed per row activation
system.mem_ctrls.bytesPerActivate::gmean   739.502544                       # Bytes accessed per row activation
system.mem_ctrls.bytesPerActivate::stdev   297.772061                       # Bytes accessed per row activation
system.mem_ctrls.bytesPerActivate::0-127        30698      3.20%      3.20% # Bytes accessed per row activation
system.mem_ctrls.bytesPerActivate::128-255        37716      3.93%      7.13% # Bytes accessed per row activation
system.mem_ctrls.bytesPerActivate::256-383        48700      5.07%     12.20% # Bytes accessed per row activation
system.mem_ctrls.bytesPerActivate::384-511        42666      4.44%     16.64% # Bytes accessed per row activation
system.mem_ctrls.bytesPerActivate::512-639        35074      3.65%     20.30% # Bytes accessed per row activation
system.mem_ctrls.bytesPerActivate::640-767        52359      5.45%     25.75% # Bytes accessed per row activation
system.mem_ctrls.bytesPerActivate::768-895        33061      3.44%     29.19% # Bytes accessed per row activation
system.mem_ctrls.bytesPerActivate::896-1023        41342      4.31%     33.50% # Bytes accessed per row activation
system.mem_ctrls.bytesPerActivate::1024-1151       638412     66.50%    100.00% # Bytes accessed per row activation
system.mem_ctrls.bytesPerActivate::total       960028                       # Bytes accessed per row activation
system.mem_ctrls.rdPerTurnAround::samples       388546                       # Reads before turning the bus around for writes
system.mem_ctrls.rdPerTurnAround::mean      16.684405                       # Reads before turning the bus around for writes
system.mem_ctrls.rdPerTurnAround::gmean     16.010682                       # Reads before turning the bus around for writes
system.mem_ctrls.rdPerTurnAround::stdev    273.470598                       # Reads before turning the bus around for writes
system.mem_ctrls.rdPerTurnAround::0-8191       388543    100.00%    100.00% # Reads before turning the bus around for writes
system.mem_ctrls.rdPerTurnAround::32768-40959            1      0.00%    100.00% # Reads before turning the bus around for writes
system.mem_ctrls.rdPerTurnAround::65536-73727            1      0.00%    100.00% # Reads before turning the bus around for writes
system.mem_ctrls.rdPerTurnAround::147456-155647            1      0.00%    100.00% # Reads before turning the bus around for writes
system.mem_ctrls.rdPerTurnAround::total        388546                       # Reads before turning the bus around for writes
system.mem_ctrls.wrPerTurnAround::samples       388546                       # Writes before turning the bus around for reads
system.mem_ctrls.wrPerTurnAround::mean      16.006952                       # Writes before turning the bus around for reads
system.mem_ctrls.wrPerTurnAround::gmean     16.006374                       # Writes before turning the bus around for reads
system.mem_ctrls.wrPerTurnAround::stdev      0.144048                       # Writes before turning the bus around for reads
system.mem_ctrls.wrPerTurnAround::16           387642     99.77%     99.77% # Writes before turning the bus around for reads
system.mem_ctrls.wrPerTurnAround::18               11      0.00%     99.77% # Writes before turning the bus around for reads
system.mem_ctrls.wrPerTurnAround::19              893      0.23%    100.00% # Writes before turning the bus around for reads
system.mem_ctrls.wrPerTurnAround::total        388546                       # Writes before turning the bus around for reads
system.mem_ctrls.totQLat                  66051270500                       # Total ticks spent queuing
system.mem_ctrls.totMemAccLat            187601408000                       # Total ticks spent from burst creation until serviced by the DRAM
system.mem_ctrls.totBusLat                32413370000                       # Total ticks spent in databus transfers
system.mem_ctrls.avgQLat                     10188.89                       # Average queueing delay per DRAM burst
system.mem_ctrls.avgBusLat                    5000.00                       # Average bus latency per DRAM burst
system.mem_ctrls.avgMemAccLat                28938.89                       # Average memory access latency per DRAM burst
system.mem_ctrls.avgRdBW                       644.19                       # Average DRAM read bandwidth in MiByte/s
system.mem_ctrls.avgWrBW                       618.03                       # Average achieved write bandwidth in MiByte/s
system.mem_ctrls.avgRdBWSys                    644.19                       # Average system read bandwidth in MiByte/s
system.mem_ctrls.avgWrBWSys                    618.03                       # Average system write bandwidth in MiByte/s
system.mem_ctrls.peakBW                      12800.00                       # Theoretical peak bandwidth in MiByte/s
system.mem_ctrls.busUtil                         9.86                       # Data bus utilization in percentage
system.mem_ctrls.busUtilRead                     5.03                       # Data bus utilization in percentage for reads
system.mem_ctrls.busUtilWrite                    4.83                       # Data bus utilization in percentage for writes
system.mem_ctrls.avgRdQLen                       1.00                       # Average read queue length when enqueuing
system.mem_ctrls.avgWrQLen                      25.38                       # Average write queue length when enqueuing
system.mem_ctrls.readRowHits                  5955966                       # Number of row buffer hits during reads
system.mem_ctrls.writeRowHits                 5786116                       # Number of row buffer hits during writes
system.mem_ctrls.readRowHitRate                 91.88                       # Row buffer hit rate for reads
system.mem_ctrls.writeRowHitRate                93.03                       # Row buffer hit rate for writes
system.mem_ctrls.avgGap                      50704.18                       # Average gap between requests
system.mem_ctrls.pageHitRate                    92.44                       # Row buffer hit rate, read and write combined
system.mem_ctrls_0.actEnergy               3628784880                       # Energy for activate commands per rank (pJ)
system.mem_ctrls_0.preEnergy               1979991750                       # Energy for precharge commands per rank (pJ)
system.mem_ctrls_0.readEnergy             25275393000                       # Energy for read commands per rank (pJ)
system.mem_ctrls_0.writeEnergy            20144421360                       # Energy for write commands per rank (pJ)
system.mem_ctrls_0.refreshEnergy          42066048960                       # Energy for refresh commands per rank (pJ)
system.mem_ctrls_0.actBackEnergy         228230333865                       # Energy for active background per rank (pJ)
system.mem_ctrls_0.preBackEnergy         186226573500                       # Energy for precharge background per rank (pJ)
system.mem_ctrls_0.totalEnergy           507551547315                       # Total energy per rank (pJ)
system.mem_ctrls_0.averagePower            788.065148                       # Core power per rank (mW)
system.mem_ctrls_0.memoryStateTime::IDLE 305083913750                       # Time in different power states
system.mem_ctrls_0.memoryStateTime::REF   21506160000                       # Time in different power states
system.mem_ctrls_0.memoryStateTime::PRE_PDN            0                       # Time in different power states
system.mem_ctrls_0.memoryStateTime::ACT  317460303500                       # Time in different power states
system.mem_ctrls_0.memoryStateTime::ACT_PDN            0                       # Time in different power states
system.mem_ctrls_1.actEnergy               3628996560                       # Energy for activate commands per rank (pJ)
system.mem_ctrls_1.preEnergy               1980107250                       # Energy for precharge commands per rank (pJ)
system.mem_ctrls_1.readEnergy             25289128800                       # Energy for read commands per rank (pJ)
system.mem_ctrls_1.writeEnergy            20157323040                       # Energy for write commands per rank (pJ)
system.mem_ctrls_1.refreshEnergy          42066048960                       # Energy for refresh commands per rank (pJ)
system.mem_ctrls_1.actBackEnergy         228509324640                       # Energy for active background per rank (pJ)
system.mem_ctrls_1.preBackEnergy         185981853000                       # Energy for precharge background per rank (pJ)
system.mem_ctrls_1.totalEnergy           507612782250                       # Total energy per rank (pJ)
system.mem_ctrls_1.averagePower            788.160210                       # Core power per rank (mW)
system.mem_ctrls_1.memoryStateTime::IDLE 304672384500                       # Time in different power states
system.mem_ctrls_1.memoryStateTime::REF   21506160000                       # Time in different power states
system.mem_ctrls_1.memoryStateTime::PRE_PDN            0                       # Time in different power states
system.mem_ctrls_1.memoryStateTime::ACT  317871902750                       # Time in different power states
system.mem_ctrls_1.memoryStateTime::ACT_PDN            0                       # Time in different power states
system.cpu_voltage_domain.voltage                   1                       # Voltage in Volts
system.cpu_clk_domain.clock                       500                       # Clock period in ticks
system.cpu.apic_clk_domain.clock                 8000                       # Clock period in ticks
system.cpu.workload.num_syscalls                  108                       # Number of system calls
system.cpu.numCycles                       1288103401                       # number of cpu cycles simulated
system.cpu.numWorkItemsStarted                      0                       # number of work items this cpu started
system.cpu.numWorkItemsCompleted                    0                       # number of work items this cpu completed
system.cpu.committedInsts                    50000000                       # Number of instructions committed
system.cpu.committedOps                      95981250                       # Number of ops (including micro ops) committed
system.cpu.num_int_alu_accesses              95975785                       # Number of integer alu accesses
system.cpu.num_fp_alu_accesses               51833393                       # Number of float alu accesses
system.cpu.num_func_calls                        7602                       # number of times a function call or return occured
system.cpu.num_conditional_control_insts      6532565                       # number of instructions that are conditional controls
system.cpu.num_int_insts                     95975785                       # number of integer instructions
system.cpu.num_fp_insts                      51833393                       # number of float instructions
system.cpu.num_int_register_reads           219093278                       # number of times the integer registers were read
system.cpu.num_int_register_writes           37404612                       # number of times the integer registers were written
system.cpu.num_fp_register_reads             51836929                       # number of times the floating registers were read
system.cpu.num_fp_register_writes                4221                       # number of times the floating registers were written
system.cpu.num_cc_register_reads             34496135                       # number of times the CC registers were read
system.cpu.num_cc_register_writes            29304313                       # number of times the CC registers were written
system.cpu.num_mem_refs                      53378424                       # number of memory refs
system.cpu.num_load_insts                     1350127                       # Number of load instructions
system.cpu.num_store_insts                   52028297                       # Number of store instructions
system.cpu.num_idle_cycles                          0                       # Number of idle cycles
system.cpu.num_busy_cycles                 1288103401                       # Number of busy cycles
system.cpu.not_idle_fraction                        1                       # Percentage of non-idle cycles
system.cpu.idle_fraction                            0                       # Percentage of idle cycles
system.cpu.Branches                           6543945                       # Number of branches fetched
system.cpu.op_class::No_OpClass                  1613      0.00%      0.00% # Class of executed instruction
system.cpu.op_class::IntAlu                  42596797     44.38%     44.38% # Class of executed instruction
system.cpu.op_class::IntMult                      725      0.00%     44.38% # Class of executed instruction
system.cpu.op_class::IntDiv                        21      0.00%     44.38% # Class of executed instruction
system.cpu.op_class::FloatAdd                    3670      0.00%     44.39% # Class of executed instruction
system.cpu.op_class::FloatCmp                       0      0.00%     44.39% # Class of executed instruction
system.cpu.op_class::FloatCvt                       0      0.00%     44.39% # Class of executed instruction
system.cpu.op_class::FloatMult                      0      0.00%     44.39% # Class of executed instruction
system.cpu.op_class::FloatDiv                       0      0.00%     44.39% # Class of executed instruction
system.cpu.op_class::FloatSqrt                      0      0.00%     44.39% # Class of executed instruction
system.cpu.op_class::SimdAdd                        0      0.00%     44.39% # Class of executed instruction
system.cpu.op_class::SimdAddAcc                     0      0.00%     44.39% # Class of executed instruction
system.cpu.op_class::SimdAlu                        0      0.00%     44.39% # Class of executed instruction
system.cpu.op_class::SimdCmp                        0      0.00%     44.39% # Class of executed instruction
system.cpu.op_class::SimdCvt                        0      0.00%     44.39% # Class of executed instruction
system.cpu.op_class::SimdMisc                       0      0.00%     44.39% # Class of executed instruction
system.cpu.op_class::SimdMult                       0      0.00%     44.39% # Class of executed instruction
system.cpu.op_class::SimdMultAcc                    0      0.00%     44.39% # Class of executed instruction
system.cpu.op_class::SimdShift                      0      0.00%     44.39% # Class of executed instruction
system.cpu.op_class::SimdShiftAcc                   0      0.00%     44.39% # Class of executed instruction
system.cpu.op_class::SimdSqrt                       0      0.00%     44.39% # Class of executed instruction
system.cpu.op_class::SimdFloatAdd                   0      0.00%     44.39% # Class of executed instruction
system.cpu.op_class::SimdFloatAlu                   0      0.00%     44.39% # Class of executed instruction
system.cpu.op_class::SimdFloatCmp                   0      0.00%     44.39% # Class of executed instruction
system.cpu.op_class::SimdFloatCvt                   0      0.00%     44.39% # Class of executed instruction
system.cpu.op_class::SimdFloatDiv                   0      0.00%     44.39% # Class of executed instruction
system.cpu.op_class::SimdFloatMisc                  0      0.00%     44.39% # Class of executed instruction
system.cpu.op_class::SimdFloatMult                  0      0.00%     44.39% # Class of executed instruction
system.cpu.op_class::SimdFloatMultAcc               0      0.00%     44.39% # Class of executed instruction
system.cpu.op_class::SimdFloatSqrt                  0      0.00%     44.39% # Class of executed instruction
system.cpu.op_class::MemRead                  1350127      1.41%     45.79% # Class of executed instruction
system.cpu.op_class::MemWrite                52028297     54.21%    100.00% # Class of executed instruction
system.cpu.op_class::IprAccess                      0      0.00%    100.00% # Class of executed instruction
system.cpu.op_class::InstPrefetch                   0      0.00%    100.00% # Class of executed instruction
system.cpu.op_class::total                   95981250                       # Class of executed instruction
system.cpu.dcache.tags.replacements           6479845                       # number of replacements
system.cpu.dcache.tags.tagsinuse          2041.765109                       # Cycle average of tags in use
system.cpu.dcache.tags.total_refs            46896545                       # Total number of references to valid blocks.
system.cpu.dcache.tags.sampled_refs           6481893                       # Sample count of references to valid blocks.
system.cpu.dcache.tags.avg_refs              7.235008                       # Average number of references to valid blocks.
system.cpu.dcache.tags.warmup_cycle        7641223500                       # Cycle when the warmup percentage was hit.
system.cpu.dcache.tags.occ_blocks::cpu.data  2041.765109                       # Average occupied blocks per requestor
system.cpu.dcache.tags.occ_percent::cpu.data     0.996956                       # Average percentage of cache occupancy
system.cpu.dcache.tags.occ_percent::total     0.996956                       # Average percentage of cache occupancy
system.cpu.dcache.tags.occ_task_id_blocks::1024         2048                       # Occupied blocks per task id
system.cpu.dcache.tags.age_task_id_blocks_1024::0          104                       # Occupied blocks per task id
system.cpu.dcache.tags.age_task_id_blocks_1024::1          917                       # Occupied blocks per task id
system.cpu.dcache.tags.age_task_id_blocks_1024::2         1027                       # Occupied blocks per task id
system.cpu.dcache.tags.occ_task_id_percent::1024            1                       # Percentage of cache occupancy per task id
system.cpu.dcache.tags.tag_accesses         113238769                       # Number of tag accesses
system.cpu.dcache.tags.data_accesses        113238769                       # Number of data accesses
system.cpu.dcache.ReadReq_hits::cpu.data      1349786                       # number of ReadReq hits
system.cpu.dcache.ReadReq_hits::total         1349786                       # number of ReadReq hits
system.cpu.dcache.WriteReq_hits::cpu.data     45546759                       # number of WriteReq hits
system.cpu.dcache.WriteReq_hits::total       45546759                       # number of WriteReq hits
system.cpu.dcache.demand_hits::cpu.data      46896545                       # number of demand (read+write) hits
system.cpu.dcache.demand_hits::total         46896545                       # number of demand (read+write) hits
system.cpu.dcache.overall_hits::cpu.data     46896545                       # number of overall hits
system.cpu.dcache.overall_hits::total        46896545                       # number of overall hits
system.cpu.dcache.ReadReq_misses::cpu.data          345                       # number of ReadReq misses
system.cpu.dcache.ReadReq_misses::total           345                       # number of ReadReq misses
system.cpu.dcache.WriteReq_misses::cpu.data      6481548                       # number of WriteReq misses
system.cpu.dcache.WriteReq_misses::total      6481548                       # number of WriteReq misses
system.cpu.dcache.demand_misses::cpu.data      6481893                       # number of demand (read+write) misses
system.cpu.dcache.demand_misses::total        6481893                       # number of demand (read+write) misses
system.cpu.dcache.overall_misses::cpu.data      6481893                       # number of overall misses
system.cpu.dcache.overall_misses::total       6481893                       # number of overall misses
system.cpu.dcache.ReadReq_miss_latency::cpu.data     28554500                       # number of ReadReq miss cycles
system.cpu.dcache.ReadReq_miss_latency::total     28554500                       # number of ReadReq miss cycles
system.cpu.dcache.WriteReq_miss_latency::cpu.data 526292282000                       # number of WriteReq miss cycles
system.cpu.dcache.WriteReq_miss_latency::total 526292282000                       # number of WriteReq miss cycles
system.cpu.dcache.demand_miss_latency::cpu.data 526320836500                       # number of demand (read+write) miss cycles
system.cpu.dcache.demand_miss_latency::total 526320836500                       # number of demand (read+write) miss cycles
system.cpu.dcache.overall_miss_latency::cpu.data 526320836500                       # number of overall miss cycles
system.cpu.dcache.overall_miss_latency::total 526320836500                       # number of overall miss cycles
system.cpu.dcache.ReadReq_accesses::cpu.data      1350131                       # number of ReadReq accesses(hits+misses)
system.cpu.dcache.ReadReq_accesses::total      1350131                       # number of ReadReq accesses(hits+misses)
system.cpu.dcache.WriteReq_accesses::cpu.data     52028307                       # number of WriteReq accesses(hits+misses)
system.cpu.dcache.WriteReq_accesses::total     52028307                       # number of WriteReq accesses(hits+misses)
system.cpu.dcache.demand_accesses::cpu.data     53378438                       # number of demand (read+write) accesses
system.cpu.dcache.demand_accesses::total     53378438                       # number of demand (read+write) accesses
system.cpu.dcache.overall_accesses::cpu.data     53378438                       # number of overall (read+write) accesses
system.cpu.dcache.overall_accesses::total     53378438                       # number of overall (read+write) accesses
system.cpu.dcache.ReadReq_miss_rate::cpu.data     0.000256                       # miss rate for ReadReq accesses
system.cpu.dcache.ReadReq_miss_rate::total     0.000256                       # miss rate for ReadReq accesses
system.cpu.dcache.WriteReq_miss_rate::cpu.data     0.124577                       # miss rate for WriteReq accesses
system.cpu.dcache.WriteReq_miss_rate::total     0.124577                       # miss rate for WriteReq accesses
system.cpu.dcache.demand_miss_rate::cpu.data     0.121433                       # miss rate for demand accesses
system.cpu.dcache.demand_miss_rate::total     0.121433                       # miss rate for demand accesses
system.cpu.dcache.overall_miss_rate::cpu.data     0.121433                       # miss rate for overall accesses
system.cpu.dcache.overall_miss_rate::total     0.121433                       # miss rate for overall accesses
system.cpu.dcache.ReadReq_avg_miss_latency::cpu.data 82766.666667                       # average ReadReq miss latency
system.cpu.dcache.ReadReq_avg_miss_latency::total 82766.666667                       # average ReadReq miss latency
system.cpu.dcache.WriteReq_avg_miss_latency::cpu.data 81198.547322                       # average WriteReq miss latency
system.cpu.dcache.WriteReq_avg_miss_latency::total 81198.547322                       # average WriteReq miss latency
system.cpu.dcache.demand_avg_miss_latency::cpu.data 81198.630786                       # average overall miss latency
system.cpu.dcache.demand_avg_miss_latency::total 81198.630786                       # average overall miss latency
system.cpu.dcache.overall_avg_miss_latency::cpu.data 81198.630786                       # average overall miss latency
system.cpu.dcache.overall_avg_miss_latency::total 81198.630786                       # average overall miss latency
system.cpu.dcache.blocked_cycles::no_mshrs            0                       # number of cycles access was blocked
system.cpu.dcache.blocked_cycles::no_targets            0                       # number of cycles access was blocked
system.cpu.dcache.blocked::no_mshrs                 0                       # number of cycles access was blocked
system.cpu.dcache.blocked::no_targets               0                       # number of cycles access was blocked
system.cpu.dcache.avg_blocked_cycles::no_mshrs          nan                       # average number of cycles each access was blocked
system.cpu.dcache.avg_blocked_cycles::no_targets          nan                       # average number of cycles each access was blocked
system.cpu.dcache.fast_writes                       0                       # number of fast writes performed
system.cpu.dcache.cache_copies                      0                       # number of cache copies performed
system.cpu.dcache.writebacks::writebacks      6479582                       # number of writebacks
system.cpu.dcache.writebacks::total           6479582                       # number of writebacks
system.cpu.dcache.ReadReq_mshr_misses::cpu.data          345                       # number of ReadReq MSHR misses
system.cpu.dcache.ReadReq_mshr_misses::total          345                       # number of ReadReq MSHR misses
system.cpu.dcache.WriteReq_mshr_misses::cpu.data      6481548                       # number of WriteReq MSHR misses
system.cpu.dcache.WriteReq_mshr_misses::total      6481548                       # number of WriteReq MSHR misses
system.cpu.dcache.demand_mshr_misses::cpu.data      6481893                       # number of demand (read+write) MSHR misses
system.cpu.dcache.demand_mshr_misses::total      6481893                       # number of demand (read+write) MSHR misses
system.cpu.dcache.overall_mshr_misses::cpu.data      6481893                       # number of overall MSHR misses
system.cpu.dcache.overall_mshr_misses::total      6481893                       # number of overall MSHR misses
system.cpu.dcache.ReadReq_mshr_miss_latency::cpu.data     28209500                       # number of ReadReq MSHR miss cycles
system.cpu.dcache.ReadReq_mshr_miss_latency::total     28209500                       # number of ReadReq MSHR miss cycles
system.cpu.dcache.WriteReq_mshr_miss_latency::cpu.data 519810734000                       # number of WriteReq MSHR miss cycles
system.cpu.dcache.WriteReq_mshr_miss_latency::total 519810734000                       # number of WriteReq MSHR miss cycles
system.cpu.dcache.demand_mshr_miss_latency::cpu.data 519838943500                       # number of demand (read+write) MSHR miss cycles
system.cpu.dcache.demand_mshr_miss_latency::total 519838943500                       # number of demand (read+write) MSHR miss cycles
system.cpu.dcache.overall_mshr_miss_latency::cpu.data 519838943500                       # number of overall MSHR miss cycles
system.cpu.dcache.overall_mshr_miss_latency::total 519838943500                       # number of overall MSHR miss cycles
system.cpu.dcache.ReadReq_mshr_miss_rate::cpu.data     0.000256                       # mshr miss rate for ReadReq accesses
system.cpu.dcache.ReadReq_mshr_miss_rate::total     0.000256                       # mshr miss rate for ReadReq accesses
system.cpu.dcache.WriteReq_mshr_miss_rate::cpu.data     0.124577                       # mshr miss rate for WriteReq accesses
system.cpu.dcache.WriteReq_mshr_miss_rate::total     0.124577                       # mshr miss rate for WriteReq accesses
system.cpu.dcache.demand_mshr_miss_rate::cpu.data     0.121433                       # mshr miss rate for demand accesses
system.cpu.dcache.demand_mshr_miss_rate::total     0.121433                       # mshr miss rate for demand accesses
system.cpu.dcache.overall_mshr_miss_rate::cpu.data     0.121433                       # mshr miss rate for overall accesses
system.cpu.dcache.overall_mshr_miss_rate::total     0.121433                       # mshr miss rate for overall accesses
system.cpu.dcache.ReadReq_avg_mshr_miss_latency::cpu.data 81766.666667                       # average ReadReq mshr miss latency
system.cpu.dcache.ReadReq_avg_mshr_miss_latency::total 81766.666667                       # average ReadReq mshr miss latency
system.cpu.dcache.WriteReq_avg_mshr_miss_latency::cpu.data 80198.547322                       # average WriteReq mshr miss latency
system.cpu.dcache.WriteReq_avg_mshr_miss_latency::total 80198.547322                       # average WriteReq mshr miss latency
system.cpu.dcache.demand_avg_mshr_miss_latency::cpu.data 80198.630786                       # average overall mshr miss latency
system.cpu.dcache.demand_avg_mshr_miss_latency::total 80198.630786                       # average overall mshr miss latency
system.cpu.dcache.overall_avg_mshr_miss_latency::cpu.data 80198.630786                       # average overall mshr miss latency
system.cpu.dcache.overall_avg_mshr_miss_latency::total 80198.630786                       # average overall mshr miss latency
system.cpu.dcache.no_allocate_misses                0                       # Number of misses that were no-allocate
system.cpu.dtb_walker_cache.tags.replacements            0                       # number of replacements
system.cpu.dtb_walker_cache.tags.tagsinuse            0                       # Cycle average of tags in use
system.cpu.dtb_walker_cache.tags.total_refs            0                       # Total number of references to valid blocks.
system.cpu.dtb_walker_cache.tags.sampled_refs            0                       # Sample count of references to valid blocks.
system.cpu.dtb_walker_cache.tags.avg_refs          nan                       # Average number of references to valid blocks.
system.cpu.dtb_walker_cache.tags.warmup_cycle            0                       # Cycle when the warmup percentage was hit.
system.cpu.dtb_walker_cache.tags.tag_accesses            0                       # Number of tag accesses
system.cpu.dtb_walker_cache.tags.data_accesses            0                       # Number of data accesses
system.cpu.dtb_walker_cache.blocked_cycles::no_mshrs            0                       # number of cycles access was blocked
system.cpu.dtb_walker_cache.blocked_cycles::no_targets            0                       # number of cycles access was blocked
system.cpu.dtb_walker_cache.blocked::no_mshrs            0                       # number of cycles access was blocked
system.cpu.dtb_walker_cache.blocked::no_targets            0                       # number of cycles access was blocked
system.cpu.dtb_walker_cache.avg_blocked_cycles::no_mshrs          nan                       # average number of cycles each access was blocked
system.cpu.dtb_walker_cache.avg_blocked_cycles::no_targets          nan                       # average number of cycles each access was blocked
system.cpu.dtb_walker_cache.fast_writes             0                       # number of fast writes performed
system.cpu.dtb_walker_cache.cache_copies            0                       # number of cache copies performed
system.cpu.dtb_walker_cache.no_allocate_misses            0                       # Number of misses that were no-allocate
system.cpu.icache.tags.replacements                65                       # number of replacements
system.cpu.icache.tags.tagsinuse           509.260918                       # Cycle average of tags in use
system.cpu.icache.tags.total_refs            70767702                       # Total number of references to valid blocks.
system.cpu.icache.tags.sampled_refs               835                       # Sample count of references to valid blocks.
system.cpu.icache.tags.avg_refs          84751.738922                       # Average number of references to valid blocks.
system.cpu.icache.tags.warmup_cycle                 0                       # Cycle when the warmup percentage was hit.
system.cpu.icache.tags.occ_blocks::cpu.inst   509.260918                       # Average occupied blocks per requestor
system.cpu.icache.tags.occ_percent::cpu.inst     0.248663                       # Average percentage of cache occupancy
system.cpu.icache.tags.occ_percent::total     0.248663                       # Average percentage of cache occupancy
system.cpu.icache.tags.occ_task_id_blocks::1024          770                       # Occupied blocks per task id
system.cpu.icache.tags.age_task_id_blocks_1024::4          770                       # Occupied blocks per task id
system.cpu.icache.tags.occ_task_id_percent::1024     0.375977                       # Percentage of cache occupancy per task id
system.cpu.icache.tags.tag_accesses         141537909                       # Number of tag accesses
system.cpu.icache.tags.data_accesses        141537909                       # Number of data accesses
system.cpu.icache.ReadReq_hits::cpu.inst     70767702                       # number of ReadReq hits
system.cpu.icache.ReadReq_hits::total        70767702                       # number of ReadReq hits
system.cpu.icache.demand_hits::cpu.inst      70767702                       # number of demand (read+write) hits
system.cpu.icache.demand_hits::total         70767702                       # number of demand (read+write) hits
system.cpu.icache.overall_hits::cpu.inst     70767702                       # number of overall hits
system.cpu.icache.overall_hits::total        70767702                       # number of overall hits
system.cpu.icache.ReadReq_misses::cpu.inst          835                       # number of ReadReq misses
system.cpu.icache.ReadReq_misses::total           835                       # number of ReadReq misses
system.cpu.icache.demand_misses::cpu.inst          835                       # number of demand (read+write) misses
system.cpu.icache.demand_misses::total            835                       # number of demand (read+write) misses
system.cpu.icache.overall_misses::cpu.inst          835                       # number of overall misses
system.cpu.icache.overall_misses::total           835                       # number of overall misses
system.cpu.icache.ReadReq_miss_latency::cpu.inst     66725500                       # number of ReadReq miss cycles
system.cpu.icache.ReadReq_miss_latency::total     66725500                       # number of ReadReq miss cycles
system.cpu.icache.demand_miss_latency::cpu.inst     66725500                       # number of demand (read+write) miss cycles
system.cpu.icache.demand_miss_latency::total     66725500                       # number of demand (read+write) miss cycles
system.cpu.icache.overall_miss_latency::cpu.inst     66725500                       # number of overall miss cycles
system.cpu.icache.overall_miss_latency::total     66725500                       # number of overall miss cycles
system.cpu.icache.ReadReq_accesses::cpu.inst     70768537                       # number of ReadReq accesses(hits+misses)
system.cpu.icache.ReadReq_accesses::total     70768537                       # number of ReadReq accesses(hits+misses)
system.cpu.icache.demand_accesses::cpu.inst     70768537                       # number of demand (read+write) accesses
system.cpu.icache.demand_accesses::total     70768537                       # number of demand (read+write) accesses
system.cpu.icache.overall_accesses::cpu.inst     70768537                       # number of overall (read+write) accesses
system.cpu.icache.overall_accesses::total     70768537                       # number of overall (read+write) accesses
system.cpu.icache.ReadReq_miss_rate::cpu.inst     0.000012                       # miss rate for ReadReq accesses
system.cpu.icache.ReadReq_miss_rate::total     0.000012                       # miss rate for ReadReq accesses
system.cpu.icache.demand_miss_rate::cpu.inst     0.000012                       # miss rate for demand accesses
system.cpu.icache.demand_miss_rate::total     0.000012                       # miss rate for demand accesses
system.cpu.icache.overall_miss_rate::cpu.inst     0.000012                       # miss rate for overall accesses
system.cpu.icache.overall_miss_rate::total     0.000012                       # miss rate for overall accesses
system.cpu.icache.ReadReq_avg_miss_latency::cpu.inst 79910.778443                       # average ReadReq miss latency
system.cpu.icache.ReadReq_avg_miss_latency::total 79910.778443                       # average ReadReq miss latency
system.cpu.icache.demand_avg_miss_latency::cpu.inst 79910.778443                       # average overall miss latency
system.cpu.icache.demand_avg_miss_latency::total 79910.778443                       # average overall miss latency
system.cpu.icache.overall_avg_miss_latency::cpu.inst 79910.778443                       # average overall miss latency
system.cpu.icache.overall_avg_miss_latency::total 79910.778443                       # average overall miss latency
system.cpu.icache.blocked_cycles::no_mshrs            0                       # number of cycles access was blocked
system.cpu.icache.blocked_cycles::no_targets            0                       # number of cycles access was blocked
system.cpu.icache.blocked::no_mshrs                 0                       # number of cycles access was blocked
system.cpu.icache.blocked::no_targets               0                       # number of cycles access was blocked
system.cpu.icache.avg_blocked_cycles::no_mshrs          nan                       # average number of cycles each access was blocked
system.cpu.icache.avg_blocked_cycles::no_targets          nan                       # average number of cycles each access was blocked
system.cpu.icache.fast_writes                       0                       # number of fast writes performed
system.cpu.icache.cache_copies                      0                       # number of cache copies performed
system.cpu.icache.writebacks::writebacks           65                       # number of writebacks
system.cpu.icache.writebacks::total                65                       # number of writebacks
system.cpu.icache.ReadReq_mshr_misses::cpu.inst          835                       # number of ReadReq MSHR misses
system.cpu.icache.ReadReq_mshr_misses::total          835                       # number of ReadReq MSHR misses
system.cpu.icache.demand_mshr_misses::cpu.inst          835                       # number of demand (read+write) MSHR misses
system.cpu.icache.demand_mshr_misses::total          835                       # number of demand (read+write) MSHR misses
system.cpu.icache.overall_mshr_misses::cpu.inst          835                       # number of overall MSHR misses
system.cpu.icache.overall_mshr_misses::total          835                       # number of overall MSHR misses
system.cpu.icache.ReadReq_mshr_miss_latency::cpu.inst     65890500                       # number of ReadReq MSHR miss cycles
system.cpu.icache.ReadReq_mshr_miss_latency::total     65890500                       # number of ReadReq MSHR miss cycles
system.cpu.icache.demand_mshr_miss_latency::cpu.inst     65890500                       # number of demand (read+write) MSHR miss cycles
system.cpu.icache.demand_mshr_miss_latency::total     65890500                       # number of demand (read+write) MSHR miss cycles
system.cpu.icache.overall_mshr_miss_latency::cpu.inst     65890500                       # number of overall MSHR miss cycles
system.cpu.icache.overall_mshr_miss_latency::total     65890500                       # number of overall MSHR miss cycles
system.cpu.icache.ReadReq_mshr_miss_rate::cpu.inst     0.000012                       # mshr miss rate for ReadReq accesses
system.cpu.icache.ReadReq_mshr_miss_rate::total     0.000012                       # mshr miss rate for ReadReq accesses
system.cpu.icache.demand_mshr_miss_rate::cpu.inst     0.000012                       # mshr miss rate for demand accesses
system.cpu.icache.demand_mshr_miss_rate::total     0.000012                       # mshr miss rate for demand accesses
system.cpu.icache.overall_mshr_miss_rate::cpu.inst     0.000012                       # mshr miss rate for overall accesses
system.cpu.icache.overall_mshr_miss_rate::total     0.000012                       # mshr miss rate for overall accesses
system.cpu.icache.ReadReq_avg_mshr_miss_latency::cpu.inst 78910.778443                       # average ReadReq mshr miss latency
system.cpu.icache.ReadReq_avg_mshr_miss_latency::total 78910.778443                       # average ReadReq mshr miss latency
system.cpu.icache.demand_avg_mshr_miss_latency::cpu.inst 78910.778443                       # average overall mshr miss latency
system.cpu.icache.demand_avg_mshr_miss_latency::total 78910.778443                       # average overall mshr miss latency
system.cpu.icache.overall_avg_mshr_miss_latency::cpu.inst 78910.778443                       # average overall mshr miss latency
system.cpu.icache.overall_avg_mshr_miss_latency::total 78910.778443                       # average overall mshr miss latency
system.cpu.icache.no_allocate_misses                0                       # Number of misses that were no-allocate
system.cpu.itb_walker_cache.tags.replacements            0                       # number of replacements
system.cpu.itb_walker_cache.tags.tagsinuse            0                       # Cycle average of tags in use
system.cpu.itb_walker_cache.tags.total_refs            0                       # Total number of references to valid blocks.
system.cpu.itb_walker_cache.tags.sampled_refs            0                       # Sample count of references to valid blocks.
system.cpu.itb_walker_cache.tags.avg_refs          nan                       # Average number of references to valid blocks.
system.cpu.itb_walker_cache.tags.warmup_cycle            0                       # Cycle when the warmup percentage was hit.
system.cpu.itb_walker_cache.tags.tag_accesses            0                       # Number of tag accesses
system.cpu.itb_walker_cache.tags.data_accesses            0                       # Number of data accesses
system.cpu.itb_walker_cache.blocked_cycles::no_mshrs            0                       # number of cycles access was blocked
system.cpu.itb_walker_cache.blocked_cycles::no_targets            0                       # number of cycles access was blocked
system.cpu.itb_walker_cache.blocked::no_mshrs            0                       # number of cycles access was blocked
system.cpu.itb_walker_cache.blocked::no_targets            0                       # number of cycles access was blocked
system.cpu.itb_walker_cache.avg_blocked_cycles::no_mshrs          nan                       # average number of cycles each access was blocked
system.cpu.itb_walker_cache.avg_blocked_cycles::no_targets          nan                       # average number of cycles each access was blocked
system.cpu.itb_walker_cache.fast_writes             0                       # number of fast writes performed
system.cpu.itb_walker_cache.cache_copies            0                       # number of cache copies performed
system.cpu.itb_walker_cache.no_allocate_misses            0                       # Number of misses that were no-allocate
system.l2.tags.replacements                   6220560                       # number of replacements
system.l2.tags.tagsinuse                 252176.717814                       # Cycle average of tags in use
system.l2.tags.total_refs                         433                       # Total number of references to valid blocks.
system.l2.tags.sampled_refs                   6480656                       # Sample count of references to valid blocks.
system.l2.tags.avg_refs                      0.000067                       # Average number of references to valid blocks.
system.l2.tags.warmup_cycle                         0                       # Cycle when the warmup percentage was hit.
system.l2.tags.occ_blocks::writebacks    252160.449020                       # Average occupied blocks per requestor
system.l2.tags.occ_blocks::cpu.inst         10.719826                       # Average occupied blocks per requestor
system.l2.tags.occ_blocks::cpu.data          5.548967                       # Average occupied blocks per requestor
system.l2.tags.occ_percent::writebacks       0.961916                       # Average percentage of cache occupancy
system.l2.tags.occ_percent::cpu.inst         0.000041                       # Average percentage of cache occupancy
system.l2.tags.occ_percent::cpu.data         0.000021                       # Average percentage of cache occupancy
system.l2.tags.occ_percent::total            0.961978                       # Average percentage of cache occupancy
system.l2.tags.occ_task_id_blocks::1024        260096                       # Occupied blocks per task id
system.l2.tags.age_task_id_blocks_1024::0          104                       # Occupied blocks per task id
system.l2.tags.age_task_id_blocks_1024::1          917                       # Occupied blocks per task id
system.l2.tags.age_task_id_blocks_1024::2         9138                       # Occupied blocks per task id
system.l2.tags.age_task_id_blocks_1024::3        90912                       # Occupied blocks per task id
system.l2.tags.age_task_id_blocks_1024::4       159025                       # Occupied blocks per task id
system.l2.tags.occ_task_id_percent::1024     0.992188                       # Percentage of cache occupancy per task id
system.l2.tags.tag_accesses                  25924841                       # Number of tag accesses
system.l2.tags.data_accesses                 25924841                       # Number of data accesses
system.l2.WritebackDirty_hits::writebacks      6479582                       # number of WritebackDirty hits
system.l2.WritebackDirty_hits::total          6479582                       # number of WritebackDirty hits
system.l2.WritebackClean_hits::writebacks           65                       # number of WritebackClean hits
system.l2.WritebackClean_hits::total               65                       # number of WritebackClean hits
system.l2.ReadExReq_hits::cpu.data                 11                       # number of ReadExReq hits
system.l2.ReadExReq_hits::total                    11                       # number of ReadExReq hits
system.l2.ReadCleanReq_hits::cpu.inst              34                       # number of ReadCleanReq hits
system.l2.ReadCleanReq_hits::total                 34                       # number of ReadCleanReq hits
system.l2.ReadSharedReq_hits::cpu.data              9                       # number of ReadSharedReq hits
system.l2.ReadSharedReq_hits::total                 9                       # number of ReadSharedReq hits
system.l2.demand_hits::cpu.inst                    34                       # number of demand (read+write) hits
system.l2.demand_hits::cpu.data                    20                       # number of demand (read+write) hits
system.l2.demand_hits::total                       54                       # number of demand (read+write) hits
system.l2.overall_hits::cpu.inst                   34                       # number of overall hits
system.l2.overall_hits::cpu.data                   20                       # number of overall hits
system.l2.overall_hits::total                      54                       # number of overall hits
system.l2.ReadExReq_misses::cpu.data          6481537                       # number of ReadExReq misses
system.l2.ReadExReq_misses::total             6481537                       # number of ReadExReq misses
system.l2.ReadCleanReq_misses::cpu.inst           801                       # number of ReadCleanReq misses
system.l2.ReadCleanReq_misses::total              801                       # number of ReadCleanReq misses
system.l2.ReadSharedReq_misses::cpu.data          336                       # number of ReadSharedReq misses
system.l2.ReadSharedReq_misses::total             336                       # number of ReadSharedReq misses
system.l2.demand_misses::cpu.inst                 801                       # number of demand (read+write) misses
system.l2.demand_misses::cpu.data             6481873                       # number of demand (read+write) misses
system.l2.demand_misses::total                6482674                       # number of demand (read+write) misses
system.l2.overall_misses::cpu.inst                801                       # number of overall misses
system.l2.overall_misses::cpu.data            6481873                       # number of overall misses
system.l2.overall_misses::total               6482674                       # number of overall misses
system.l2.ReadExReq_miss_latency::cpu.data 510088296000                       # number of ReadExReq miss cycles
system.l2.ReadExReq_miss_latency::total  510088296000                       # number of ReadExReq miss cycles
system.l2.ReadCleanReq_miss_latency::cpu.inst     64275000                       # number of ReadCleanReq miss cycles
system.l2.ReadCleanReq_miss_latency::total     64275000                       # number of ReadCleanReq miss cycles
system.l2.ReadSharedReq_miss_latency::cpu.data     27596000                       # number of ReadSharedReq miss cycles
system.l2.ReadSharedReq_miss_latency::total     27596000                       # number of ReadSharedReq miss cycles
system.l2.demand_miss_latency::cpu.inst      64275000                       # number of demand (read+write) miss cycles
system.l2.demand_miss_latency::cpu.data  510115892000                       # number of demand (read+write) miss cycles
system.l2.demand_miss_latency::total     510180167000                       # number of demand (read+write) miss cycles
system.l2.overall_miss_latency::cpu.inst     64275000                       # number of overall miss cycles
system.l2.overall_miss_latency::cpu.data 510115892000                       # number of overall miss cycles
system.l2.overall_miss_latency::total    510180167000                       # number of overall miss cycles
system.l2.WritebackDirty_accesses::writebacks      6479582                       # number of WritebackDirty accesses(hits+misses)
system.l2.WritebackDirty_accesses::total      6479582                       # number of WritebackDirty accesses(hits+misses)
system.l2.WritebackClean_accesses::writebacks           65                       # number of WritebackClean accesses(hits+misses)
system.l2.WritebackClean_accesses::total           65                       # number of WritebackClean accesses(hits+misses)
system.l2.ReadExReq_accesses::cpu.data        6481548                       # number of ReadExReq accesses(hits+misses)
system.l2.ReadExReq_accesses::total           6481548                       # number of ReadExReq accesses(hits+misses)
system.l2.ReadCleanReq_accesses::cpu.inst          835                       # number of ReadCleanReq accesses(hits+misses)
system.l2.ReadCleanReq_accesses::total            835                       # number of ReadCleanReq accesses(hits+misses)
system.l2.ReadSharedReq_accesses::cpu.data          345                       # number of ReadSharedReq accesses(hits+misses)
system.l2.ReadSharedReq_accesses::total           345                       # number of ReadSharedReq accesses(hits+misses)
system.l2.demand_accesses::cpu.inst               835                       # number of demand (read+write) accesses
system.l2.demand_accesses::cpu.data           6481893                       # number of demand (read+write) accesses
system.l2.demand_accesses::total              6482728                       # number of demand (read+write) accesses
system.l2.overall_accesses::cpu.inst              835                       # number of overall (read+write) accesses
system.l2.overall_accesses::cpu.data          6481893                       # number of overall (read+write) accesses
system.l2.overall_accesses::total             6482728                       # number of overall (read+write) accesses
system.l2.ReadExReq_miss_rate::cpu.data      0.999998                       # miss rate for ReadExReq accesses
system.l2.ReadExReq_miss_rate::total         0.999998                       # miss rate for ReadExReq accesses
system.l2.ReadCleanReq_miss_rate::cpu.inst     0.959281                       # miss rate for ReadCleanReq accesses
system.l2.ReadCleanReq_miss_rate::total      0.959281                       # miss rate for ReadCleanReq accesses
system.l2.ReadSharedReq_miss_rate::cpu.data     0.973913                       # miss rate for ReadSharedReq accesses
system.l2.ReadSharedReq_miss_rate::total     0.973913                       # miss rate for ReadSharedReq accesses
system.l2.demand_miss_rate::cpu.inst         0.959281                       # miss rate for demand accesses
system.l2.demand_miss_rate::cpu.data         0.999997                       # miss rate for demand accesses
system.l2.demand_miss_rate::total            0.999992                       # miss rate for demand accesses
system.l2.overall_miss_rate::cpu.inst        0.959281                       # miss rate for overall accesses
system.l2.overall_miss_rate::cpu.data        0.999997                       # miss rate for overall accesses
system.l2.overall_miss_rate::total           0.999992                       # miss rate for overall accesses
system.l2.ReadExReq_avg_miss_latency::cpu.data 78698.662987                       # average ReadExReq miss latency
system.l2.ReadExReq_avg_miss_latency::total 78698.662987                       # average ReadExReq miss latency
system.l2.ReadCleanReq_avg_miss_latency::cpu.inst 80243.445693                       # average ReadCleanReq miss latency
system.l2.ReadCleanReq_avg_miss_latency::total 80243.445693                       # average ReadCleanReq miss latency
system.l2.ReadSharedReq_avg_miss_latency::cpu.data 82130.952381                       # average ReadSharedReq miss latency
system.l2.ReadSharedReq_avg_miss_latency::total 82130.952381                       # average ReadSharedReq miss latency
system.l2.demand_avg_miss_latency::cpu.inst 80243.445693                       # average overall miss latency
system.l2.demand_avg_miss_latency::cpu.data 78698.840906                       # average overall miss latency
system.l2.demand_avg_miss_latency::total 78699.031758                       # average overall miss latency
system.l2.overall_avg_miss_latency::cpu.inst 80243.445693                       # average overall miss latency
system.l2.overall_avg_miss_latency::cpu.data 78698.840906                       # average overall miss latency
system.l2.overall_avg_miss_latency::total 78699.031758                       # average overall miss latency
system.l2.blocked_cycles::no_mshrs                  0                       # number of cycles access was blocked
system.l2.blocked_cycles::no_targets                0                       # number of cycles access was blocked
system.l2.blocked::no_mshrs                         0                       # number of cycles access was blocked
system.l2.blocked::no_targets                       0                       # number of cycles access was blocked
system.l2.avg_blocked_cycles::no_mshrs            nan                       # average number of cycles each access was blocked
system.l2.avg_blocked_cycles::no_targets          nan                       # average number of cycles each access was blocked
system.l2.fast_writes                               0                       # number of fast writes performed
system.l2.cache_copies                              0                       # number of cache copies performed
system.l2.writebacks::writebacks              6219469                       # number of writebacks
system.l2.writebacks::total                   6219469                       # number of writebacks
system.l2.ReadExReq_mshr_misses::cpu.data      6481537                       # number of ReadExReq MSHR misses
system.l2.ReadExReq_mshr_misses::total        6481537                       # number of ReadExReq MSHR misses
system.l2.ReadCleanReq_mshr_misses::cpu.inst          801                       # number of ReadCleanReq MSHR misses
system.l2.ReadCleanReq_mshr_misses::total          801                       # number of ReadCleanReq MSHR misses
system.l2.ReadSharedReq_mshr_misses::cpu.data          336                       # number of ReadSharedReq MSHR misses
system.l2.ReadSharedReq_mshr_misses::total          336                       # number of ReadSharedReq MSHR misses
system.l2.demand_mshr_misses::cpu.inst            801                       # number of demand (read+write) MSHR misses
system.l2.demand_mshr_misses::cpu.data        6481873                       # number of demand (read+write) MSHR misses
system.l2.demand_mshr_misses::total           6482674                       # number of demand (read+write) MSHR misses
system.l2.overall_mshr_misses::cpu.inst           801                       # number of overall MSHR misses
system.l2.overall_mshr_misses::cpu.data       6481873                       # number of overall MSHR misses
system.l2.overall_mshr_misses::total          6482674                       # number of overall MSHR misses
system.l2.ReadExReq_mshr_miss_latency::cpu.data 445272926000                       # number of ReadExReq MSHR miss cycles
system.l2.ReadExReq_mshr_miss_latency::total 445272926000                       # number of ReadExReq MSHR miss cycles
system.l2.ReadCleanReq_mshr_miss_latency::cpu.inst     56265000                       # number of ReadCleanReq MSHR miss cycles
system.l2.ReadCleanReq_mshr_miss_latency::total     56265000                       # number of ReadCleanReq MSHR miss cycles
system.l2.ReadSharedReq_mshr_miss_latency::cpu.data     24236000                       # number of ReadSharedReq MSHR miss cycles
system.l2.ReadSharedReq_mshr_miss_latency::total     24236000                       # number of ReadSharedReq MSHR miss cycles
system.l2.demand_mshr_miss_latency::cpu.inst     56265000                       # number of demand (read+write) MSHR miss cycles
system.l2.demand_mshr_miss_latency::cpu.data 445297162000                       # number of demand (read+write) MSHR miss cycles
system.l2.demand_mshr_miss_latency::total 445353427000                       # number of demand (read+write) MSHR miss cycles
system.l2.overall_mshr_miss_latency::cpu.inst     56265000                       # number of overall MSHR miss cycles
system.l2.overall_mshr_miss_latency::cpu.data 445297162000                       # number of overall MSHR miss cycles
system.l2.overall_mshr_miss_latency::total 445353427000                       # number of overall MSHR miss cycles
system.l2.ReadExReq_mshr_miss_rate::cpu.data     0.999998                       # mshr miss rate for ReadExReq accesses
system.l2.ReadExReq_mshr_miss_rate::total     0.999998                       # mshr miss rate for ReadExReq accesses
system.l2.ReadCleanReq_mshr_miss_rate::cpu.inst     0.959281                       # mshr miss rate for ReadCleanReq accesses
system.l2.ReadCleanReq_mshr_miss_rate::total     0.959281                       # mshr miss rate for ReadCleanReq accesses
system.l2.ReadSharedReq_mshr_miss_rate::cpu.data     0.973913                       # mshr miss rate for ReadSharedReq accesses
system.l2.ReadSharedReq_mshr_miss_rate::total     0.973913                       # mshr miss rate for ReadSharedReq accesses
system.l2.demand_mshr_miss_rate::cpu.inst     0.959281                       # mshr miss rate for demand accesses
system.l2.demand_mshr_miss_rate::cpu.data     0.999997                       # mshr miss rate for demand accesses
system.l2.demand_mshr_miss_rate::total       0.999992                       # mshr miss rate for demand accesses
system.l2.overall_mshr_miss_rate::cpu.inst     0.959281                       # mshr miss rate for overall accesses
system.l2.overall_mshr_miss_rate::cpu.data     0.999997                       # mshr miss rate for overall accesses
system.l2.overall_mshr_miss_rate::total      0.999992                       # mshr miss rate for overall accesses
system.l2.ReadExReq_avg_mshr_miss_latency::cpu.data 68698.662987                       # average ReadExReq mshr miss latency
system.l2.ReadExReq_avg_mshr_miss_latency::total 68698.662987                       # average ReadExReq mshr miss latency
system.l2.ReadCleanReq_avg_mshr_miss_latency::cpu.inst 70243.445693                       # average ReadCleanReq mshr miss latency
system.l2.ReadCleanReq_avg_mshr_miss_latency::total 70243.445693                       # average ReadCleanReq mshr miss latency
system.l2.ReadSharedReq_avg_mshr_miss_latency::cpu.data 72130.952381                       # average ReadSharedReq mshr miss latency
system.l2.ReadSharedReq_avg_mshr_miss_latency::total 72130.952381                       # average ReadSharedReq mshr miss latency
system.l2.demand_avg_mshr_miss_latency::cpu.inst 70243.445693                       # average overall mshr miss latency
system.l2.demand_avg_mshr_miss_latency::cpu.data 68698.840906                       # average overall mshr miss latency
system.l2.demand_avg_mshr_miss_latency::total 68699.031758                       # average overall mshr miss latency
system.l2.overall_avg_mshr_miss_latency::cpu.inst 70243.445693                       # average overall mshr miss latency
system.l2.overall_avg_mshr_miss_latency::cpu.data 68698.840906                       # average overall mshr miss latency
system.l2.overall_avg_mshr_miss_latency::total 68699.031758                       # average overall mshr miss latency
system.l2.no_allocate_misses                        0                       # Number of misses that were no-allocate
system.membus.trans_dist::ReadResp               1137                       # Transaction distribution
system.membus.trans_dist::WritebackDirty      6219469                       # Transaction distribution
system.membus.trans_dist::CleanEvict              291                       # Transaction distribution
system.membus.trans_dist::ReadExReq           6481537                       # Transaction distribution
system.membus.trans_dist::ReadExResp          6481537                       # Transaction distribution
system.membus.trans_dist::ReadSharedReq          1137                       # Transaction distribution
system.membus.pkt_count_system.l2.mem_side::system.mem_ctrls.port     19185108                       # Packet count per connected master and slave (bytes)
system.membus.pkt_count_system.l2.mem_side::total     19185108                       # Packet count per connected master and slave (bytes)
system.membus.pkt_count::total               19185108                       # Packet count per connected master and slave (bytes)
system.membus.pkt_size_system.l2.mem_side::system.mem_ctrls.port    812937152                       # Cumulative packet size per connected master and slave (bytes)
system.membus.pkt_size_system.l2.mem_side::total    812937152                       # Cumulative packet size per connected master and slave (bytes)
system.membus.pkt_size::total               812937152                       # Cumulative packet size per connected master and slave (bytes)
system.membus.snoops                                0                       # Total snoops (count)
system.membus.snoop_fanout::samples          12702434                       # Request fanout histogram
system.membus.snoop_fanout::mean                    0                       # Request fanout histogram
system.membus.snoop_fanout::stdev                   0                       # Request fanout histogram
system.membus.snoop_fanout::underflows              0      0.00%      0.00% # Request fanout histogram
system.membus.snoop_fanout::0                12702434    100.00%    100.00% # Request fanout histogram
system.membus.snoop_fanout::1                       0      0.00%    100.00% # Request fanout histogram
system.membus.snoop_fanout::overflows               0      0.00%    100.00% # Request fanout histogram
system.membus.snoop_fanout::min_value               0                       # Request fanout histogram
system.membus.snoop_fanout::max_value               0                       # Request fanout histogram
system.membus.snoop_fanout::total            12702434                       # Request fanout histogram
system.membus.reqLayer2.occupancy         37580317000                       # Layer occupancy (ticks)
system.membus.reqLayer2.utilization               5.8                       # Layer utilization (%)
system.membus.respLayer1.occupancy        34099747250                       # Layer occupancy (ticks)
system.membus.respLayer1.utilization              5.3                       # Layer utilization (%)
system.tol2bus.snoop_filter.tot_requests     12962638                       # Total number of requests made to the snoop filter.
system.tol2bus.snoop_filter.hit_single_requests      6479910                       # Number of requests hitting in the snoop filter with a single holder of the requested data.
system.tol2bus.snoop_filter.hit_multi_requests            1                       # Number of requests hitting in the snoop filter with multiple (>1) holders of the requested data.
system.tol2bus.snoop_filter.tot_snoops            800                       # Total number of snoops made to the snoop filter.
system.tol2bus.snoop_filter.hit_single_snoops          800                       # Number of snoops hitting in the snoop filter with a single holder of the requested data.
system.tol2bus.snoop_filter.hit_multi_snoops            0                       # Number of snoops hitting in the snoop filter with multiple (>1) holders of the requested data.
system.tol2bus.trans_dist::ReadResp              1180                       # Transaction distribution
system.tol2bus.trans_dist::WritebackDirty     12699051                       # Transaction distribution
system.tol2bus.trans_dist::WritebackClean           65                       # Transaction distribution
system.tol2bus.trans_dist::CleanEvict            1353                       # Transaction distribution
system.tol2bus.trans_dist::ReadExReq          6481548                       # Transaction distribution
system.tol2bus.trans_dist::ReadExResp         6481548                       # Transaction distribution
system.tol2bus.trans_dist::ReadCleanReq           835                       # Transaction distribution
system.tol2bus.trans_dist::ReadSharedReq          345                       # Transaction distribution
system.tol2bus.pkt_count_system.cpu.icache.mem_side::system.l2.cpu_side         1735                       # Packet count per connected master and slave (bytes)
system.tol2bus.pkt_count_system.cpu.dcache.mem_side::system.l2.cpu_side     19443630                       # Packet count per connected master and slave (bytes)
system.tol2bus.pkt_count::total              19445365                       # Packet count per connected master and slave (bytes)
system.tol2bus.pkt_size_system.cpu.icache.mem_side::system.l2.cpu_side        57600                       # Cumulative packet size per connected master and slave (bytes)
system.tol2bus.pkt_size_system.cpu.dcache.mem_side::system.l2.cpu_side    829534400                       # Cumulative packet size per connected master and slave (bytes)
system.tol2bus.pkt_size::total              829592000                       # Cumulative packet size per connected master and slave (bytes)
system.tol2bus.snoops                         6220560                       # Total snoops (count)
system.tol2bus.snoop_fanout::samples         12703288                       # Request fanout histogram
system.tol2bus.snoop_fanout::mean            0.000063                       # Request fanout histogram
system.tol2bus.snoop_fanout::stdev           0.007940                       # Request fanout histogram
system.tol2bus.snoop_fanout::underflows             0      0.00%      0.00% # Request fanout histogram
system.tol2bus.snoop_fanout::0               12702487     99.99%     99.99% # Request fanout histogram
system.tol2bus.snoop_fanout::1                    801      0.01%    100.00% # Request fanout histogram
system.tol2bus.snoop_fanout::2                      0      0.00%    100.00% # Request fanout histogram
system.tol2bus.snoop_fanout::3                      0      0.00%    100.00% # Request fanout histogram
system.tol2bus.snoop_fanout::4                      0      0.00%    100.00% # Request fanout histogram
system.tol2bus.snoop_fanout::overflows              0      0.00%    100.00% # Request fanout histogram
system.tol2bus.snoop_fanout::min_value              0                       # Request fanout histogram
system.tol2bus.snoop_fanout::max_value              1                       # Request fanout histogram
system.tol2bus.snoop_fanout::total           12703288                       # Request fanout histogram
system.tol2bus.reqLayer0.occupancy        12960966000                       # Layer occupancy (ticks)
system.tol2bus.reqLayer0.utilization              2.0                       # Layer utilization (%)
system.tol2bus.respLayer0.occupancy           1252500                       # Layer occupancy (ticks)
system.tol2bus.respLayer0.utilization             0.0                       # Layer utilization (%)
system.tol2bus.respLayer1.occupancy        9722839500                       # Layer occupancy (ticks)
system.tol2bus.respLayer1.utilization             1.5                       # Layer utilization (%)

---------- End Simulation Statistics   ----------
