
---------- Begin Simulation Statistics ----------
sim_seconds                                  0.095419                       # Number of seconds simulated
sim_ticks                                 95418515500                       # Number of ticks simulated
final_tick                                95418515500                       # Number of ticks from beginning of simulation (restored from checkpoints and never reset)
sim_freq                                 1000000000000                       # Frequency of simulated ticks
host_inst_rate                                 246272                       # Simulator instruction rate (inst/s)
host_op_rate                                   320226                       # Simulator op (including micro ops) rate (op/s)
host_tick_rate                              469977894                       # Simulator tick rate (ticks/s)
host_mem_usage                                 838136                       # Number of bytes of host memory used
host_seconds                                   203.03                       # Real time elapsed on the host
sim_insts                                    50000001                       # Number of instructions simulated
sim_ops                                      65014771                       # Number of ops (including micro ops) simulated
system.voltage_domain.voltage                       1                       # Voltage in Volts
system.clk_domain.clock                          1000                       # Clock period in ticks
system.mem_ctrls.bytes_read::cpu.inst          101504                       # Number of bytes read from this memory
system.mem_ctrls.bytes_read::cpu.data          248960                       # Number of bytes read from this memory
system.mem_ctrls.bytes_read::total             350464                       # Number of bytes read from this memory
system.mem_ctrls.bytes_inst_read::cpu.inst       101504                       # Number of instructions bytes read from this memory
system.mem_ctrls.bytes_inst_read::total        101504                       # Number of instructions bytes read from this memory
system.mem_ctrls.bytes_written::writebacks          896                       # Number of bytes written to this memory
system.mem_ctrls.bytes_written::total             896                       # Number of bytes written to this memory
system.mem_ctrls.num_reads::cpu.inst              793                       # Number of read requests responded to by this memory
system.mem_ctrls.num_reads::cpu.data             1945                       # Number of read requests responded to by this memory
system.mem_ctrls.num_reads::total                2738                       # Number of read requests responded to by this memory
system.mem_ctrls.num_writes::writebacks             7                       # Number of write requests responded to by this memory
system.mem_ctrls.num_writes::total                  7                       # Number of write requests responded to by this memory
system.mem_ctrls.bw_read::cpu.inst            1063777                       # Total read bandwidth from this memory (bytes/s)
system.mem_ctrls.bw_read::cpu.data            2609137                       # Total read bandwidth from this memory (bytes/s)
system.mem_ctrls.bw_read::total               3672914                       # Total read bandwidth from this memory (bytes/s)
system.mem_ctrls.bw_inst_read::cpu.inst       1063777                       # Instruction read bandwidth from this memory (bytes/s)
system.mem_ctrls.bw_inst_read::total          1063777                       # Instruction read bandwidth from this memory (bytes/s)
system.mem_ctrls.bw_write::writebacks            9390                       # Write bandwidth from this memory (bytes/s)
system.mem_ctrls.bw_write::total                 9390                       # Write bandwidth from this memory (bytes/s)
system.mem_ctrls.bw_total::writebacks            9390                       # Total bandwidth to/from this memory (bytes/s)
system.mem_ctrls.bw_total::cpu.inst           1063777                       # Total bandwidth to/from this memory (bytes/s)
system.mem_ctrls.bw_total::cpu.data           2609137                       # Total bandwidth to/from this memory (bytes/s)
system.mem_ctrls.bw_total::total              3682304                       # Total bandwidth to/from this memory (bytes/s)
system.mem_ctrls.readReqs                        2738                       # Number of read requests accepted
system.mem_ctrls.writeReqs                          7                       # Number of write requests accepted
system.mem_ctrls.readBursts                      5476                       # Number of DRAM read bursts, including those serviced by the write queue
system.mem_ctrls.writeBursts                       14                       # Number of DRAM write bursts, including those merged in the write queue
system.mem_ctrls.bytesReadDRAM                 350208                       # Total number of bytes read from DRAM
system.mem_ctrls.bytesReadWrQ                     256                       # Total number of bytes read from write queue
system.mem_ctrls.bytesWritten                       0                       # Total number of bytes written to DRAM
system.mem_ctrls.bytesReadSys                  350464                       # Total read bytes from the system interface side
system.mem_ctrls.bytesWrittenSys                  896                       # Total written bytes from the system interface side
system.mem_ctrls.servicedByWrQ                      4                       # Number of DRAM read bursts serviced by the write queue
system.mem_ctrls.mergedWrBursts                     0                       # Number of DRAM write bursts merged with an existing one
system.mem_ctrls.neitherReadNorWriteReqs           57                       # Number of requests that are neither read nor write
system.mem_ctrls.perBankRdBursts::0               282                       # Per bank write bursts
system.mem_ctrls.perBankRdBursts::1               242                       # Per bank write bursts
system.mem_ctrls.perBankRdBursts::2               324                       # Per bank write bursts
system.mem_ctrls.perBankRdBursts::3               212                       # Per bank write bursts
system.mem_ctrls.perBankRdBursts::4               380                       # Per bank write bursts
system.mem_ctrls.perBankRdBursts::5               314                       # Per bank write bursts
system.mem_ctrls.perBankRdBursts::6               236                       # Per bank write bursts
system.mem_ctrls.perBankRdBursts::7               302                       # Per bank write bursts
system.mem_ctrls.perBankRdBursts::8               416                       # Per bank write bursts
system.mem_ctrls.perBankRdBursts::9               422                       # Per bank write bursts
system.mem_ctrls.perBankRdBursts::10              470                       # Per bank write bursts
system.mem_ctrls.perBankRdBursts::11              494                       # Per bank write bursts
system.mem_ctrls.perBankRdBursts::12              388                       # Per bank write bursts
system.mem_ctrls.perBankRdBursts::13              334                       # Per bank write bursts
system.mem_ctrls.perBankRdBursts::14              312                       # Per bank write bursts
system.mem_ctrls.perBankRdBursts::15              344                       # Per bank write bursts
system.mem_ctrls.perBankWrBursts::0                 0                       # Per bank write bursts
system.mem_ctrls.perBankWrBursts::1                 0                       # Per bank write bursts
system.mem_ctrls.perBankWrBursts::2                 0                       # Per bank write bursts
system.mem_ctrls.perBankWrBursts::3                 0                       # Per bank write bursts
system.mem_ctrls.perBankWrBursts::4                 0                       # Per bank write bursts
system.mem_ctrls.perBankWrBursts::5                 0                       # Per bank write bursts
system.mem_ctrls.perBankWrBursts::6                 0                       # Per bank write bursts
system.mem_ctrls.perBankWrBursts::7                 0                       # Per bank write bursts
system.mem_ctrls.perBankWrBursts::8                 0                       # Per bank write bursts
system.mem_ctrls.perBankWrBursts::9                 0                       # Per bank write bursts
system.mem_ctrls.perBankWrBursts::10                0                       # Per bank write bursts
system.mem_ctrls.perBankWrBursts::11                0                       # Per bank write bursts
system.mem_ctrls.perBankWrBursts::12                0                       # Per bank write bursts
system.mem_ctrls.perBankWrBursts::13                0                       # Per bank write bursts
system.mem_ctrls.perBankWrBursts::14                0                       # Per bank write bursts
system.mem_ctrls.perBankWrBursts::15                0                       # Per bank write bursts
system.mem_ctrls.numRdRetry                         0                       # Number of times read queue was full causing retry
system.mem_ctrls.numWrRetry                         0                       # Number of times write queue was full causing retry
system.mem_ctrls.totGap                   92784447500                       # Total gap between requests
system.mem_ctrls.readPktSize::0                     0                       # Read request sizes (log2)
system.mem_ctrls.readPktSize::1                     0                       # Read request sizes (log2)
system.mem_ctrls.readPktSize::2                     0                       # Read request sizes (log2)
system.mem_ctrls.readPktSize::3                     0                       # Read request sizes (log2)
system.mem_ctrls.readPktSize::4                     0                       # Read request sizes (log2)
system.mem_ctrls.readPktSize::5                     0                       # Read request sizes (log2)
system.mem_ctrls.readPktSize::6                  5476                       # Read request sizes (log2)
system.mem_ctrls.writePktSize::0                    0                       # Write request sizes (log2)
system.mem_ctrls.writePktSize::1                    0                       # Write request sizes (log2)
system.mem_ctrls.writePktSize::2                    0                       # Write request sizes (log2)
system.mem_ctrls.writePktSize::3                    0                       # Write request sizes (log2)
system.mem_ctrls.writePktSize::4                    0                       # Write request sizes (log2)
system.mem_ctrls.writePktSize::5                    0                       # Write request sizes (log2)
system.mem_ctrls.writePktSize::6                   14                       # Write request sizes (log2)
system.mem_ctrls.rdQLenPdf::0                    2732                       # What read queue length does an incoming req see
system.mem_ctrls.rdQLenPdf::1                    2732                       # What read queue length does an incoming req see
system.mem_ctrls.rdQLenPdf::2                       3                       # What read queue length does an incoming req see
system.mem_ctrls.rdQLenPdf::3                       3                       # What read queue length does an incoming req see
system.mem_ctrls.rdQLenPdf::4                       1                       # What read queue length does an incoming req see
system.mem_ctrls.rdQLenPdf::5                       1                       # What read queue length does an incoming req see
system.mem_ctrls.rdQLenPdf::6                       0                       # What read queue length does an incoming req see
system.mem_ctrls.rdQLenPdf::7                       0                       # What read queue length does an incoming req see
system.mem_ctrls.rdQLenPdf::8                       0                       # What read queue length does an incoming req see
system.mem_ctrls.rdQLenPdf::9                       0                       # What read queue length does an incoming req see
system.mem_ctrls.rdQLenPdf::10                      0                       # What read queue length does an incoming req see
system.mem_ctrls.rdQLenPdf::11                      0                       # What read queue length does an incoming req see
system.mem_ctrls.rdQLenPdf::12                      0                       # What read queue length does an incoming req see
system.mem_ctrls.rdQLenPdf::13                      0                       # What read queue length does an incoming req see
system.mem_ctrls.rdQLenPdf::14                      0                       # What read queue length does an incoming req see
system.mem_ctrls.rdQLenPdf::15                      0                       # What read queue length does an incoming req see
system.mem_ctrls.rdQLenPdf::16                      0                       # What read queue length does an incoming req see
system.mem_ctrls.rdQLenPdf::17                      0                       # What read queue length does an incoming req see
system.mem_ctrls.rdQLenPdf::18                      0                       # What read queue length does an incoming req see
system.mem_ctrls.rdQLenPdf::19                      0                       # What read queue length does an incoming req see
system.mem_ctrls.rdQLenPdf::20                      0                       # What read queue length does an incoming req see
system.mem_ctrls.rdQLenPdf::21                      0                       # What read queue length does an incoming req see
system.mem_ctrls.rdQLenPdf::22                      0                       # What read queue length does an incoming req see
system.mem_ctrls.rdQLenPdf::23                      0                       # What read queue length does an incoming req see
system.mem_ctrls.rdQLenPdf::24                      0                       # What read queue length does an incoming req see
system.mem_ctrls.rdQLenPdf::25                      0                       # What read queue length does an incoming req see
system.mem_ctrls.rdQLenPdf::26                      0                       # What read queue length does an incoming req see
system.mem_ctrls.rdQLenPdf::27                      0                       # What read queue length does an incoming req see
system.mem_ctrls.rdQLenPdf::28                      0                       # What read queue length does an incoming req see
system.mem_ctrls.rdQLenPdf::29                      0                       # What read queue length does an incoming req see
system.mem_ctrls.rdQLenPdf::30                      0                       # What read queue length does an incoming req see
system.mem_ctrls.rdQLenPdf::31                      0                       # What read queue length does an incoming req see
system.mem_ctrls.wrQLenPdf::0                       1                       # What write queue length does an incoming req see
system.mem_ctrls.wrQLenPdf::1                       1                       # What write queue length does an incoming req see
system.mem_ctrls.wrQLenPdf::2                       1                       # What write queue length does an incoming req see
system.mem_ctrls.wrQLenPdf::3                       1                       # What write queue length does an incoming req see
system.mem_ctrls.wrQLenPdf::4                       1                       # What write queue length does an incoming req see
system.mem_ctrls.wrQLenPdf::5                       1                       # What write queue length does an incoming req see
system.mem_ctrls.wrQLenPdf::6                       1                       # What write queue length does an incoming req see
system.mem_ctrls.wrQLenPdf::7                       1                       # What write queue length does an incoming req see
system.mem_ctrls.wrQLenPdf::8                       1                       # What write queue length does an incoming req see
system.mem_ctrls.wrQLenPdf::9                       1                       # What write queue length does an incoming req see
system.mem_ctrls.wrQLenPdf::10                      1                       # What write queue length does an incoming req see
system.mem_ctrls.wrQLenPdf::11                      1                       # What write queue length does an incoming req see
system.mem_ctrls.wrQLenPdf::12                      1                       # What write queue length does an incoming req see
system.mem_ctrls.wrQLenPdf::13                      1                       # What write queue length does an incoming req see
system.mem_ctrls.wrQLenPdf::14                      0                       # What write queue length does an incoming req see
system.mem_ctrls.wrQLenPdf::15                      0                       # What write queue length does an incoming req see
system.mem_ctrls.wrQLenPdf::16                      0                       # What write queue length does an incoming req see
system.mem_ctrls.wrQLenPdf::17                      0                       # What write queue length does an incoming req see
system.mem_ctrls.wrQLenPdf::18                      0                       # What write queue length does an incoming req see
system.mem_ctrls.wrQLenPdf::19                      0                       # What write queue length does an incoming req see
system.mem_ctrls.wrQLenPdf::20                      0                       # What write queue length does an incoming req see
system.mem_ctrls.wrQLenPdf::21                      0                       # What write queue length does an incoming req see
system.mem_ctrls.wrQLenPdf::22                      0                       # What write queue length does an incoming req see
system.mem_ctrls.wrQLenPdf::23                      0                       # What write queue length does an incoming req see
system.mem_ctrls.wrQLenPdf::24                      0                       # What write queue length does an incoming req see
system.mem_ctrls.wrQLenPdf::25                      0                       # What write queue length does an incoming req see
system.mem_ctrls.wrQLenPdf::26                      0                       # What write queue length does an incoming req see
system.mem_ctrls.wrQLenPdf::27                      0                       # What write queue length does an incoming req see
system.mem_ctrls.wrQLenPdf::28                      0                       # What write queue length does an incoming req see
system.mem_ctrls.wrQLenPdf::29                      0                       # What write queue length does an incoming req see
system.mem_ctrls.wrQLenPdf::30                      0                       # What write queue length does an incoming req see
system.mem_ctrls.wrQLenPdf::31                      0                       # What write queue length does an incoming req see
system.mem_ctrls.wrQLenPdf::32                      0                       # What write queue length does an incoming req see
system.mem_ctrls.wrQLenPdf::33                      0                       # What write queue length does an incoming req see
system.mem_ctrls.wrQLenPdf::34                      0                       # What write queue length does an incoming req see
system.mem_ctrls.wrQLenPdf::35                      0                       # What write queue length does an incoming req see
system.mem_ctrls.wrQLenPdf::36                      0                       # What write queue length does an incoming req see
system.mem_ctrls.wrQLenPdf::37                      0                       # What write queue length does an incoming req see
system.mem_ctrls.wrQLenPdf::38                      0                       # What write queue length does an incoming req see
system.mem_ctrls.wrQLenPdf::39                      0                       # What write queue length does an incoming req see
system.mem_ctrls.wrQLenPdf::40                      0                       # What write queue length does an incoming req see
system.mem_ctrls.wrQLenPdf::41                      0                       # What write queue length does an incoming req see
system.mem_ctrls.wrQLenPdf::42                      0                       # What write queue length does an incoming req see
system.mem_ctrls.wrQLenPdf::43                      0                       # What write queue length does an incoming req see
system.mem_ctrls.wrQLenPdf::44                      0                       # What write queue length does an incoming req see
system.mem_ctrls.wrQLenPdf::45                      0                       # What write queue length does an incoming req see
system.mem_ctrls.wrQLenPdf::46                      0                       # What write queue length does an incoming req see
system.mem_ctrls.wrQLenPdf::47                      0                       # What write queue length does an incoming req see
system.mem_ctrls.wrQLenPdf::48                      0                       # What write queue length does an incoming req see
system.mem_ctrls.wrQLenPdf::49                      0                       # What write queue length does an incoming req see
system.mem_ctrls.wrQLenPdf::50                      0                       # What write queue length does an incoming req see
system.mem_ctrls.wrQLenPdf::51                      0                       # What write queue length does an incoming req see
system.mem_ctrls.wrQLenPdf::52                      0                       # What write queue length does an incoming req see
system.mem_ctrls.wrQLenPdf::53                      0                       # What write queue length does an incoming req see
system.mem_ctrls.wrQLenPdf::54                      0                       # What write queue length does an incoming req see
system.mem_ctrls.wrQLenPdf::55                      0                       # What write queue length does an incoming req see
system.mem_ctrls.wrQLenPdf::56                      0                       # What write queue length does an incoming req see
system.mem_ctrls.wrQLenPdf::57                      0                       # What write queue length does an incoming req see
system.mem_ctrls.wrQLenPdf::58                      0                       # What write queue length does an incoming req see
system.mem_ctrls.wrQLenPdf::59                      0                       # What write queue length does an incoming req see
system.mem_ctrls.wrQLenPdf::60                      0                       # What write queue length does an incoming req see
system.mem_ctrls.wrQLenPdf::61                      0                       # What write queue length does an incoming req see
system.mem_ctrls.wrQLenPdf::62                      0                       # What write queue length does an incoming req see
system.mem_ctrls.wrQLenPdf::63                      0                       # What write queue length does an incoming req see
system.mem_ctrls.bytesPerActivate::samples         1314                       # Bytes accessed per row activation
system.mem_ctrls.bytesPerActivate::mean    266.520548                       # Bytes accessed per row activation
system.mem_ctrls.bytesPerActivate::gmean   193.608503                       # Bytes accessed per row activation
system.mem_ctrls.bytesPerActivate::stdev   271.405431                       # Bytes accessed per row activation
system.mem_ctrls.bytesPerActivate::128-255          920     70.02%     70.02% # Bytes accessed per row activation
system.mem_ctrls.bytesPerActivate::256-383          113      8.60%     78.61% # Bytes accessed per row activation
system.mem_ctrls.bytesPerActivate::384-511           71      5.40%     84.02% # Bytes accessed per row activation
system.mem_ctrls.bytesPerActivate::512-639           41      3.12%     87.14% # Bytes accessed per row activation
system.mem_ctrls.bytesPerActivate::640-767           27      2.05%     89.19% # Bytes accessed per row activation
system.mem_ctrls.bytesPerActivate::768-895           20      1.52%     90.72% # Bytes accessed per row activation
system.mem_ctrls.bytesPerActivate::896-1023           18      1.37%     92.09% # Bytes accessed per row activation
system.mem_ctrls.bytesPerActivate::1024-1151          104      7.91%    100.00% # Bytes accessed per row activation
system.mem_ctrls.bytesPerActivate::total         1314                       # Bytes accessed per row activation
system.mem_ctrls.totQLat                     74406500                       # Total ticks spent queuing
system.mem_ctrls.totMemAccLat               177006500                       # Total ticks spent from burst creation until serviced by the DRAM
system.mem_ctrls.totBusLat                   27360000                       # Total ticks spent in databus transfers
system.mem_ctrls.avgQLat                     13597.68                       # Average queueing delay per DRAM burst
system.mem_ctrls.avgBusLat                    5000.00                       # Average bus latency per DRAM burst
system.mem_ctrls.avgMemAccLat                32347.68                       # Average memory access latency per DRAM burst
system.mem_ctrls.avgRdBW                         3.67                       # Average DRAM read bandwidth in MiByte/s
system.mem_ctrls.avgWrBW                         0.00                       # Average achieved write bandwidth in MiByte/s
system.mem_ctrls.avgRdBWSys                      3.67                       # Average system read bandwidth in MiByte/s
system.mem_ctrls.avgWrBWSys                      0.01                       # Average system write bandwidth in MiByte/s
system.mem_ctrls.peakBW                      12800.00                       # Theoretical peak bandwidth in MiByte/s
system.mem_ctrls.busUtil                         0.03                       # Data bus utilization in percentage
system.mem_ctrls.busUtilRead                     0.03                       # Data bus utilization in percentage for reads
system.mem_ctrls.busUtilWrite                    0.00                       # Data bus utilization in percentage for writes
system.mem_ctrls.avgRdQLen                       2.00                       # Average read queue length when enqueuing
system.mem_ctrls.avgWrQLen                      10.38                       # Average write queue length when enqueuing
system.mem_ctrls.readRowHits                     4158                       # Number of row buffer hits during reads
system.mem_ctrls.writeRowHits                       0                       # Number of row buffer hits during writes
system.mem_ctrls.readRowHitRate                 75.99                       # Row buffer hit rate for reads
system.mem_ctrls.writeRowHitRate                 0.00                       # Row buffer hit rate for writes
system.mem_ctrls.avgGap                   33801255.92                       # Average gap between requests
system.mem_ctrls.pageHitRate                    75.79                       # Row buffer hit rate, read and write combined
system.mem_ctrls_0.actEnergy                  4770360                       # Energy for activate commands per rank (pJ)
system.mem_ctrls_0.preEnergy                  2602875                       # Energy for precharge commands per rank (pJ)
system.mem_ctrls_0.readEnergy                17877600                       # Energy for read commands per rank (pJ)
system.mem_ctrls_0.writeEnergy                      0                       # Energy for write commands per rank (pJ)
system.mem_ctrls_0.refreshEnergy           6231894240                       # Energy for refresh commands per rank (pJ)
system.mem_ctrls_0.actBackEnergy           3155362965                       # Energy for active background per rank (pJ)
system.mem_ctrls_0.preBackEnergy          54479910000                       # Energy for precharge background per rank (pJ)
system.mem_ctrls_0.totalEnergy            63892418040                       # Total energy per rank (pJ)
system.mem_ctrls_0.averagePower            669.640919                       # Core power per rank (mW)
system.mem_ctrls_0.memoryStateTime::IDLE  90626091250                       # Time in different power states
system.mem_ctrls_0.memoryStateTime::REF    3186040000                       # Time in different power states
system.mem_ctrls_0.memoryStateTime::PRE_PDN            0                       # Time in different power states
system.mem_ctrls_0.memoryStateTime::ACT    1600836250                       # Time in different power states
system.mem_ctrls_0.memoryStateTime::ACT_PDN            0                       # Time in different power states
system.mem_ctrls_1.actEnergy                  5163480                       # Energy for activate commands per rank (pJ)
system.mem_ctrls_1.preEnergy                  2817375                       # Energy for precharge commands per rank (pJ)
system.mem_ctrls_1.readEnergy                24804000                       # Energy for read commands per rank (pJ)
system.mem_ctrls_1.writeEnergy                      0                       # Energy for write commands per rank (pJ)
system.mem_ctrls_1.refreshEnergy           6231894240                       # Energy for refresh commands per rank (pJ)
system.mem_ctrls_1.actBackEnergy           3266513820                       # Energy for active background per rank (pJ)
system.mem_ctrls_1.preBackEnergy          54382409250                       # Energy for precharge background per rank (pJ)
system.mem_ctrls_1.totalEnergy            63913602165                       # Total energy per rank (pJ)
system.mem_ctrls_1.averagePower            669.862945                       # Core power per rank (mW)
system.mem_ctrls_1.memoryStateTime::IDLE  90463326750                       # Time in different power states
system.mem_ctrls_1.memoryStateTime::REF    3186040000                       # Time in different power states
system.mem_ctrls_1.memoryStateTime::PRE_PDN            0                       # Time in different power states
system.mem_ctrls_1.memoryStateTime::ACT    1763600750                       # Time in different power states
system.mem_ctrls_1.memoryStateTime::ACT_PDN            0                       # Time in different power states
system.cpu_voltage_domain.voltage                   1                       # Voltage in Volts
system.cpu_clk_domain.clock                       500                       # Clock period in ticks
system.cpu.apic_clk_domain.clock                 8000                       # Clock period in ticks
system.cpu.workload.num_syscalls                   34                       # Number of system calls
system.cpu.numCycles                        190837031                       # number of cpu cycles simulated
system.cpu.numWorkItemsStarted                      0                       # number of work items this cpu started
system.cpu.numWorkItemsCompleted                    0                       # number of work items this cpu completed
system.cpu.committedInsts                    50000001                       # Number of instructions committed
system.cpu.committedOps                      65014771                       # Number of ops (including micro ops) committed
system.cpu.num_int_alu_accesses              62933723                       # Number of integer alu accesses
system.cpu.num_fp_alu_accesses                2948954                       # Number of float alu accesses
system.cpu.num_func_calls                      164791                       # number of times a function call or return occured
system.cpu.num_conditional_control_insts      2606578                       # number of instructions that are conditional controls
system.cpu.num_int_insts                     62933723                       # number of integer instructions
system.cpu.num_fp_insts                       2948954                       # number of float instructions
system.cpu.num_int_register_reads           147293489                       # number of times the integer registers were read
system.cpu.num_int_register_writes           57136580                       # number of times the integer registers were written
system.cpu.num_fp_register_reads              2505840                       # number of times the floating registers were read
system.cpu.num_fp_register_writes             2527243                       # number of times the floating registers were written
system.cpu.num_cc_register_reads             19216340                       # number of times the CC registers were read
system.cpu.num_cc_register_writes            26132626                       # number of times the CC registers were written
system.cpu.num_mem_refs                      25502522                       # number of memory refs
system.cpu.num_load_insts                    21863458                       # Number of load instructions
system.cpu.num_store_insts                    3639064                       # Number of store instructions
system.cpu.num_idle_cycles                          0                       # Number of idle cycles
system.cpu.num_busy_cycles                  190837031                       # Number of busy cycles
system.cpu.not_idle_fraction                        1                       # Percentage of non-idle cycles
system.cpu.idle_fraction                            0                       # Percentage of idle cycles
system.cpu.Branches                           2859400                       # Number of branches fetched
system.cpu.op_class::No_OpClass                195787      0.30%      0.30% # Class of executed instruction
system.cpu.op_class::IntAlu                  36733092     56.50%     56.80% # Class of executed instruction
system.cpu.op_class::IntMult                    70748      0.11%     56.91% # Class of executed instruction
system.cpu.op_class::IntDiv                    629626      0.97%     57.88% # Class of executed instruction
system.cpu.op_class::FloatAdd                 1882996      2.90%     60.77% # Class of executed instruction
system.cpu.op_class::FloatCmp                       0      0.00%     60.77% # Class of executed instruction
system.cpu.op_class::FloatCvt                       0      0.00%     60.77% # Class of executed instruction
system.cpu.op_class::FloatMult                      0      0.00%     60.77% # Class of executed instruction
system.cpu.op_class::FloatDiv                       0      0.00%     60.77% # Class of executed instruction
system.cpu.op_class::FloatSqrt                      0      0.00%     60.77% # Class of executed instruction
system.cpu.op_class::SimdAdd                        0      0.00%     60.77% # Class of executed instruction
system.cpu.op_class::SimdAddAcc                     0      0.00%     60.77% # Class of executed instruction
system.cpu.op_class::SimdAlu                        0      0.00%     60.77% # Class of executed instruction
system.cpu.op_class::SimdCmp                        0      0.00%     60.77% # Class of executed instruction
system.cpu.op_class::SimdCvt                        0      0.00%     60.77% # Class of executed instruction
system.cpu.op_class::SimdMisc                       0      0.00%     60.77% # Class of executed instruction
system.cpu.op_class::SimdMult                       0      0.00%     60.77% # Class of executed instruction
system.cpu.op_class::SimdMultAcc                    0      0.00%     60.77% # Class of executed instruction
system.cpu.op_class::SimdShift                      0      0.00%     60.77% # Class of executed instruction
system.cpu.op_class::SimdShiftAcc                   0      0.00%     60.77% # Class of executed instruction
system.cpu.op_class::SimdSqrt                       0      0.00%     60.77% # Class of executed instruction
system.cpu.op_class::SimdFloatAdd                   0      0.00%     60.77% # Class of executed instruction
system.cpu.op_class::SimdFloatAlu                   0      0.00%     60.77% # Class of executed instruction
system.cpu.op_class::SimdFloatCmp                   0      0.00%     60.77% # Class of executed instruction
system.cpu.op_class::SimdFloatCvt                   0      0.00%     60.77% # Class of executed instruction
system.cpu.op_class::SimdFloatDiv                   0      0.00%     60.77% # Class of executed instruction
system.cpu.op_class::SimdFloatMisc                  0      0.00%     60.77% # Class of executed instruction
system.cpu.op_class::SimdFloatMult                  0      0.00%     60.77% # Class of executed instruction
system.cpu.op_class::SimdFloatMultAcc               0      0.00%     60.77% # Class of executed instruction
system.cpu.op_class::SimdFloatSqrt                  0      0.00%     60.77% # Class of executed instruction
system.cpu.op_class::MemRead                 21863458     33.63%     94.40% # Class of executed instruction
system.cpu.op_class::MemWrite                 3639064      5.60%    100.00% # Class of executed instruction
system.cpu.op_class::IprAccess                      0      0.00%    100.00% # Class of executed instruction
system.cpu.op_class::InstPrefetch                   0      0.00%    100.00% # Class of executed instruction
system.cpu.op_class::total                   65014771                       # Class of executed instruction
system.cpu.dcache.tags.replacements             11770                       # number of replacements
system.cpu.dcache.tags.tagsinuse          1002.162272                       # Cycle average of tags in use
system.cpu.dcache.tags.total_refs            25489515                       # Total number of references to valid blocks.
system.cpu.dcache.tags.sampled_refs             12794                       # Sample count of references to valid blocks.
system.cpu.dcache.tags.avg_refs           1992.302251                       # Average number of references to valid blocks.
system.cpu.dcache.tags.warmup_cycle       11058928500                       # Cycle when the warmup percentage was hit.
system.cpu.dcache.tags.occ_blocks::cpu.data  1002.162272                       # Average occupied blocks per requestor
system.cpu.dcache.tags.occ_percent::cpu.data     0.978674                       # Average percentage of cache occupancy
system.cpu.dcache.tags.occ_percent::total     0.978674                       # Average percentage of cache occupancy
system.cpu.dcache.tags.occ_task_id_blocks::1024         1024                       # Occupied blocks per task id
system.cpu.dcache.tags.age_task_id_blocks_1024::0            2                       # Occupied blocks per task id
system.cpu.dcache.tags.age_task_id_blocks_1024::1            2                       # Occupied blocks per task id
system.cpu.dcache.tags.age_task_id_blocks_1024::2            9                       # Occupied blocks per task id
system.cpu.dcache.tags.age_task_id_blocks_1024::3          786                       # Occupied blocks per task id
system.cpu.dcache.tags.age_task_id_blocks_1024::4          225                       # Occupied blocks per task id
system.cpu.dcache.tags.occ_task_id_percent::1024            1                       # Percentage of cache occupancy per task id
system.cpu.dcache.tags.tag_accesses          51017910                       # Number of tag accesses
system.cpu.dcache.tags.data_accesses         51017910                       # Number of data accesses
system.cpu.dcache.ReadReq_hits::cpu.data     21857230                       # number of ReadReq hits
system.cpu.dcache.ReadReq_hits::total        21857230                       # number of ReadReq hits
system.cpu.dcache.WriteReq_hits::cpu.data      3630209                       # number of WriteReq hits
system.cpu.dcache.WriteReq_hits::total        3630209                       # number of WriteReq hits
system.cpu.dcache.SoftPFReq_hits::cpu.data         2076                       # number of SoftPFReq hits
system.cpu.dcache.SoftPFReq_hits::total          2076                       # number of SoftPFReq hits
system.cpu.dcache.demand_hits::cpu.data      25487439                       # number of demand (read+write) hits
system.cpu.dcache.demand_hits::total         25487439                       # number of demand (read+write) hits
system.cpu.dcache.overall_hits::cpu.data     25489515                       # number of overall hits
system.cpu.dcache.overall_hits::total        25489515                       # number of overall hits
system.cpu.dcache.ReadReq_misses::cpu.data         3290                       # number of ReadReq misses
system.cpu.dcache.ReadReq_misses::total          3290                       # number of ReadReq misses
system.cpu.dcache.WriteReq_misses::cpu.data         8883                       # number of WriteReq misses
system.cpu.dcache.WriteReq_misses::total         8883                       # number of WriteReq misses
system.cpu.dcache.SoftPFReq_misses::cpu.data          870                       # number of SoftPFReq misses
system.cpu.dcache.SoftPFReq_misses::total          870                       # number of SoftPFReq misses
system.cpu.dcache.demand_misses::cpu.data        12173                       # number of demand (read+write) misses
system.cpu.dcache.demand_misses::total          12173                       # number of demand (read+write) misses
system.cpu.dcache.overall_misses::cpu.data        13043                       # number of overall misses
system.cpu.dcache.overall_misses::total         13043                       # number of overall misses
system.cpu.dcache.ReadReq_miss_latency::cpu.data     70692500                       # number of ReadReq miss cycles
system.cpu.dcache.ReadReq_miss_latency::total     70692500                       # number of ReadReq miss cycles
system.cpu.dcache.WriteReq_miss_latency::cpu.data    221212500                       # number of WriteReq miss cycles
system.cpu.dcache.WriteReq_miss_latency::total    221212500                       # number of WriteReq miss cycles
system.cpu.dcache.demand_miss_latency::cpu.data    291905000                       # number of demand (read+write) miss cycles
system.cpu.dcache.demand_miss_latency::total    291905000                       # number of demand (read+write) miss cycles
system.cpu.dcache.overall_miss_latency::cpu.data    291905000                       # number of overall miss cycles
system.cpu.dcache.overall_miss_latency::total    291905000                       # number of overall miss cycles
system.cpu.dcache.ReadReq_accesses::cpu.data     21860520                       # number of ReadReq accesses(hits+misses)
system.cpu.dcache.ReadReq_accesses::total     21860520                       # number of ReadReq accesses(hits+misses)
system.cpu.dcache.WriteReq_accesses::cpu.data      3639092                       # number of WriteReq accesses(hits+misses)
system.cpu.dcache.WriteReq_accesses::total      3639092                       # number of WriteReq accesses(hits+misses)
system.cpu.dcache.SoftPFReq_accesses::cpu.data         2946                       # number of SoftPFReq accesses(hits+misses)
system.cpu.dcache.SoftPFReq_accesses::total         2946                       # number of SoftPFReq accesses(hits+misses)
system.cpu.dcache.demand_accesses::cpu.data     25499612                       # number of demand (read+write) accesses
system.cpu.dcache.demand_accesses::total     25499612                       # number of demand (read+write) accesses
system.cpu.dcache.overall_accesses::cpu.data     25502558                       # number of overall (read+write) accesses
system.cpu.dcache.overall_accesses::total     25502558                       # number of overall (read+write) accesses
system.cpu.dcache.ReadReq_miss_rate::cpu.data     0.000150                       # miss rate for ReadReq accesses
system.cpu.dcache.ReadReq_miss_rate::total     0.000150                       # miss rate for ReadReq accesses
system.cpu.dcache.WriteReq_miss_rate::cpu.data     0.002441                       # miss rate for WriteReq accesses
system.cpu.dcache.WriteReq_miss_rate::total     0.002441                       # miss rate for WriteReq accesses
system.cpu.dcache.SoftPFReq_miss_rate::cpu.data     0.295316                       # miss rate for SoftPFReq accesses
system.cpu.dcache.SoftPFReq_miss_rate::total     0.295316                       # miss rate for SoftPFReq accesses
system.cpu.dcache.demand_miss_rate::cpu.data     0.000477                       # miss rate for demand accesses
system.cpu.dcache.demand_miss_rate::total     0.000477                       # miss rate for demand accesses
system.cpu.dcache.overall_miss_rate::cpu.data     0.000511                       # miss rate for overall accesses
system.cpu.dcache.overall_miss_rate::total     0.000511                       # miss rate for overall accesses
system.cpu.dcache.ReadReq_avg_miss_latency::cpu.data 21487.082067                       # average ReadReq miss latency
system.cpu.dcache.ReadReq_avg_miss_latency::total 21487.082067                       # average ReadReq miss latency
system.cpu.dcache.WriteReq_avg_miss_latency::cpu.data 24902.904424                       # average WriteReq miss latency
system.cpu.dcache.WriteReq_avg_miss_latency::total 24902.904424                       # average WriteReq miss latency
system.cpu.dcache.demand_avg_miss_latency::cpu.data 23979.709192                       # average overall miss latency
system.cpu.dcache.demand_avg_miss_latency::total 23979.709192                       # average overall miss latency
system.cpu.dcache.overall_avg_miss_latency::cpu.data 22380.203941                       # average overall miss latency
system.cpu.dcache.overall_avg_miss_latency::total 22380.203941                       # average overall miss latency
system.cpu.dcache.blocked_cycles::no_mshrs           34                       # number of cycles access was blocked
system.cpu.dcache.blocked_cycles::no_targets            0                       # number of cycles access was blocked
system.cpu.dcache.blocked::no_mshrs                 2                       # number of cycles access was blocked
system.cpu.dcache.blocked::no_targets               0                       # number of cycles access was blocked
system.cpu.dcache.avg_blocked_cycles::no_mshrs           17                       # average number of cycles each access was blocked
system.cpu.dcache.avg_blocked_cycles::no_targets          nan                       # average number of cycles each access was blocked
system.cpu.dcache.fast_writes                       0                       # number of fast writes performed
system.cpu.dcache.cache_copies                      0                       # number of cache copies performed
system.cpu.dcache.writebacks::writebacks        11247                       # number of writebacks
system.cpu.dcache.writebacks::total             11247                       # number of writebacks
system.cpu.dcache.ReadReq_mshr_misses::cpu.data         3290                       # number of ReadReq MSHR misses
system.cpu.dcache.ReadReq_mshr_misses::total         3290                       # number of ReadReq MSHR misses
system.cpu.dcache.WriteReq_mshr_misses::cpu.data         8883                       # number of WriteReq MSHR misses
system.cpu.dcache.WriteReq_mshr_misses::total         8883                       # number of WriteReq MSHR misses
system.cpu.dcache.SoftPFReq_mshr_misses::cpu.data          621                       # number of SoftPFReq MSHR misses
system.cpu.dcache.SoftPFReq_mshr_misses::total          621                       # number of SoftPFReq MSHR misses
system.cpu.dcache.demand_mshr_misses::cpu.data        12173                       # number of demand (read+write) MSHR misses
system.cpu.dcache.demand_mshr_misses::total        12173                       # number of demand (read+write) MSHR misses
system.cpu.dcache.overall_mshr_misses::cpu.data        12794                       # number of overall MSHR misses
system.cpu.dcache.overall_mshr_misses::total        12794                       # number of overall MSHR misses
system.cpu.dcache.ReadReq_mshr_miss_latency::cpu.data     67402500                       # number of ReadReq MSHR miss cycles
system.cpu.dcache.ReadReq_mshr_miss_latency::total     67402500                       # number of ReadReq MSHR miss cycles
system.cpu.dcache.WriteReq_mshr_miss_latency::cpu.data    212329500                       # number of WriteReq MSHR miss cycles
system.cpu.dcache.WriteReq_mshr_miss_latency::total    212329500                       # number of WriteReq MSHR miss cycles
system.cpu.dcache.SoftPFReq_mshr_miss_latency::cpu.data     18795000                       # number of SoftPFReq MSHR miss cycles
system.cpu.dcache.SoftPFReq_mshr_miss_latency::total     18795000                       # number of SoftPFReq MSHR miss cycles
system.cpu.dcache.demand_mshr_miss_latency::cpu.data    279732000                       # number of demand (read+write) MSHR miss cycles
system.cpu.dcache.demand_mshr_miss_latency::total    279732000                       # number of demand (read+write) MSHR miss cycles
system.cpu.dcache.overall_mshr_miss_latency::cpu.data    298527000                       # number of overall MSHR miss cycles
system.cpu.dcache.overall_mshr_miss_latency::total    298527000                       # number of overall MSHR miss cycles
system.cpu.dcache.ReadReq_mshr_miss_rate::cpu.data     0.000150                       # mshr miss rate for ReadReq accesses
system.cpu.dcache.ReadReq_mshr_miss_rate::total     0.000150                       # mshr miss rate for ReadReq accesses
system.cpu.dcache.WriteReq_mshr_miss_rate::cpu.data     0.002441                       # mshr miss rate for WriteReq accesses
system.cpu.dcache.WriteReq_mshr_miss_rate::total     0.002441                       # mshr miss rate for WriteReq accesses
system.cpu.dcache.SoftPFReq_mshr_miss_rate::cpu.data     0.210794                       # mshr miss rate for SoftPFReq accesses
system.cpu.dcache.SoftPFReq_mshr_miss_rate::total     0.210794                       # mshr miss rate for SoftPFReq accesses
system.cpu.dcache.demand_mshr_miss_rate::cpu.data     0.000477                       # mshr miss rate for demand accesses
system.cpu.dcache.demand_mshr_miss_rate::total     0.000477                       # mshr miss rate for demand accesses
system.cpu.dcache.overall_mshr_miss_rate::cpu.data     0.000502                       # mshr miss rate for overall accesses
system.cpu.dcache.overall_mshr_miss_rate::total     0.000502                       # mshr miss rate for overall accesses
system.cpu.dcache.ReadReq_avg_mshr_miss_latency::cpu.data 20487.082067                       # average ReadReq mshr miss latency
system.cpu.dcache.ReadReq_avg_mshr_miss_latency::total 20487.082067                       # average ReadReq mshr miss latency
system.cpu.dcache.WriteReq_avg_mshr_miss_latency::cpu.data 23902.904424                       # average WriteReq mshr miss latency
system.cpu.dcache.WriteReq_avg_mshr_miss_latency::total 23902.904424                       # average WriteReq mshr miss latency
system.cpu.dcache.SoftPFReq_avg_mshr_miss_latency::cpu.data 30265.700483                       # average SoftPFReq mshr miss latency
system.cpu.dcache.SoftPFReq_avg_mshr_miss_latency::total 30265.700483                       # average SoftPFReq mshr miss latency
system.cpu.dcache.demand_avg_mshr_miss_latency::cpu.data 22979.709192                       # average overall mshr miss latency
system.cpu.dcache.demand_avg_mshr_miss_latency::total 22979.709192                       # average overall mshr miss latency
system.cpu.dcache.overall_avg_mshr_miss_latency::cpu.data 23333.359387                       # average overall mshr miss latency
system.cpu.dcache.overall_avg_mshr_miss_latency::total 23333.359387                       # average overall mshr miss latency
system.cpu.dcache.no_allocate_misses                0                       # Number of misses that were no-allocate
system.cpu.dtb_walker_cache.tags.replacements            0                       # number of replacements
system.cpu.dtb_walker_cache.tags.tagsinuse            0                       # Cycle average of tags in use
system.cpu.dtb_walker_cache.tags.total_refs            0                       # Total number of references to valid blocks.
system.cpu.dtb_walker_cache.tags.sampled_refs            0                       # Sample count of references to valid blocks.
system.cpu.dtb_walker_cache.tags.avg_refs          nan                       # Average number of references to valid blocks.
system.cpu.dtb_walker_cache.tags.warmup_cycle            0                       # Cycle when the warmup percentage was hit.
system.cpu.dtb_walker_cache.tags.tag_accesses            0                       # Number of tag accesses
system.cpu.dtb_walker_cache.tags.data_accesses            0                       # Number of data accesses
system.cpu.dtb_walker_cache.blocked_cycles::no_mshrs            0                       # number of cycles access was blocked
system.cpu.dtb_walker_cache.blocked_cycles::no_targets            0                       # number of cycles access was blocked
system.cpu.dtb_walker_cache.blocked::no_mshrs            0                       # number of cycles access was blocked
system.cpu.dtb_walker_cache.blocked::no_targets            0                       # number of cycles access was blocked
system.cpu.dtb_walker_cache.avg_blocked_cycles::no_mshrs          nan                       # average number of cycles each access was blocked
system.cpu.dtb_walker_cache.avg_blocked_cycles::no_targets          nan                       # average number of cycles each access was blocked
system.cpu.dtb_walker_cache.fast_writes             0                       # number of fast writes performed
system.cpu.dtb_walker_cache.cache_copies            0                       # number of cache copies performed
system.cpu.dtb_walker_cache.no_allocate_misses            0                       # Number of misses that were no-allocate
system.cpu.icache.tags.replacements               132                       # number of replacements
system.cpu.icache.tags.tagsinuse           669.579111                       # Cycle average of tags in use
system.cpu.icache.tags.total_refs            69567050                       # Total number of references to valid blocks.
system.cpu.icache.tags.sampled_refs               806                       # Sample count of references to valid blocks.
system.cpu.icache.tags.avg_refs          86311.476427                       # Average number of references to valid blocks.
system.cpu.icache.tags.warmup_cycle                 0                       # Cycle when the warmup percentage was hit.
system.cpu.icache.tags.occ_blocks::cpu.inst   669.579111                       # Average occupied blocks per requestor
system.cpu.icache.tags.occ_percent::cpu.inst     0.653886                       # Average percentage of cache occupancy
system.cpu.icache.tags.occ_percent::total     0.653886                       # Average percentage of cache occupancy
system.cpu.icache.tags.occ_task_id_blocks::1024          674                       # Occupied blocks per task id
system.cpu.icache.tags.age_task_id_blocks_1024::3            2                       # Occupied blocks per task id
system.cpu.icache.tags.age_task_id_blocks_1024::4          672                       # Occupied blocks per task id
system.cpu.icache.tags.occ_task_id_percent::1024     0.658203                       # Percentage of cache occupancy per task id
system.cpu.icache.tags.tag_accesses         139136518                       # Number of tag accesses
system.cpu.icache.tags.data_accesses        139136518                       # Number of data accesses
system.cpu.icache.ReadReq_hits::cpu.inst     69567050                       # number of ReadReq hits
system.cpu.icache.ReadReq_hits::total        69567050                       # number of ReadReq hits
system.cpu.icache.demand_hits::cpu.inst      69567050                       # number of demand (read+write) hits
system.cpu.icache.demand_hits::total         69567050                       # number of demand (read+write) hits
system.cpu.icache.overall_hits::cpu.inst     69567050                       # number of overall hits
system.cpu.icache.overall_hits::total        69567050                       # number of overall hits
system.cpu.icache.ReadReq_misses::cpu.inst          806                       # number of ReadReq misses
system.cpu.icache.ReadReq_misses::total           806                       # number of ReadReq misses
system.cpu.icache.demand_misses::cpu.inst          806                       # number of demand (read+write) misses
system.cpu.icache.demand_misses::total            806                       # number of demand (read+write) misses
system.cpu.icache.overall_misses::cpu.inst          806                       # number of overall misses
system.cpu.icache.overall_misses::total           806                       # number of overall misses
system.cpu.icache.ReadReq_miss_latency::cpu.inst     68689500                       # number of ReadReq miss cycles
system.cpu.icache.ReadReq_miss_latency::total     68689500                       # number of ReadReq miss cycles
system.cpu.icache.demand_miss_latency::cpu.inst     68689500                       # number of demand (read+write) miss cycles
system.cpu.icache.demand_miss_latency::total     68689500                       # number of demand (read+write) miss cycles
system.cpu.icache.overall_miss_latency::cpu.inst     68689500                       # number of overall miss cycles
system.cpu.icache.overall_miss_latency::total     68689500                       # number of overall miss cycles
system.cpu.icache.ReadReq_accesses::cpu.inst     69567856                       # number of ReadReq accesses(hits+misses)
system.cpu.icache.ReadReq_accesses::total     69567856                       # number of ReadReq accesses(hits+misses)
system.cpu.icache.demand_accesses::cpu.inst     69567856                       # number of demand (read+write) accesses
system.cpu.icache.demand_accesses::total     69567856                       # number of demand (read+write) accesses
system.cpu.icache.overall_accesses::cpu.inst     69567856                       # number of overall (read+write) accesses
system.cpu.icache.overall_accesses::total     69567856                       # number of overall (read+write) accesses
system.cpu.icache.ReadReq_miss_rate::cpu.inst     0.000012                       # miss rate for ReadReq accesses
system.cpu.icache.ReadReq_miss_rate::total     0.000012                       # miss rate for ReadReq accesses
system.cpu.icache.demand_miss_rate::cpu.inst     0.000012                       # miss rate for demand accesses
system.cpu.icache.demand_miss_rate::total     0.000012                       # miss rate for demand accesses
system.cpu.icache.overall_miss_rate::cpu.inst     0.000012                       # miss rate for overall accesses
system.cpu.icache.overall_miss_rate::total     0.000012                       # miss rate for overall accesses
system.cpu.icache.ReadReq_avg_miss_latency::cpu.inst 85222.704715                       # average ReadReq miss latency
system.cpu.icache.ReadReq_avg_miss_latency::total 85222.704715                       # average ReadReq miss latency
system.cpu.icache.demand_avg_miss_latency::cpu.inst 85222.704715                       # average overall miss latency
system.cpu.icache.demand_avg_miss_latency::total 85222.704715                       # average overall miss latency
system.cpu.icache.overall_avg_miss_latency::cpu.inst 85222.704715                       # average overall miss latency
system.cpu.icache.overall_avg_miss_latency::total 85222.704715                       # average overall miss latency
system.cpu.icache.blocked_cycles::no_mshrs            0                       # number of cycles access was blocked
system.cpu.icache.blocked_cycles::no_targets            0                       # number of cycles access was blocked
system.cpu.icache.blocked::no_mshrs                 0                       # number of cycles access was blocked
system.cpu.icache.blocked::no_targets               0                       # number of cycles access was blocked
system.cpu.icache.avg_blocked_cycles::no_mshrs          nan                       # average number of cycles each access was blocked
system.cpu.icache.avg_blocked_cycles::no_targets          nan                       # average number of cycles each access was blocked
system.cpu.icache.fast_writes                       0                       # number of fast writes performed
system.cpu.icache.cache_copies                      0                       # number of cache copies performed
system.cpu.icache.writebacks::writebacks          132                       # number of writebacks
system.cpu.icache.writebacks::total               132                       # number of writebacks
system.cpu.icache.ReadReq_mshr_misses::cpu.inst          806                       # number of ReadReq MSHR misses
system.cpu.icache.ReadReq_mshr_misses::total          806                       # number of ReadReq MSHR misses
system.cpu.icache.demand_mshr_misses::cpu.inst          806                       # number of demand (read+write) MSHR misses
system.cpu.icache.demand_mshr_misses::total          806                       # number of demand (read+write) MSHR misses
system.cpu.icache.overall_mshr_misses::cpu.inst          806                       # number of overall MSHR misses
system.cpu.icache.overall_mshr_misses::total          806                       # number of overall MSHR misses
system.cpu.icache.ReadReq_mshr_miss_latency::cpu.inst     67883500                       # number of ReadReq MSHR miss cycles
system.cpu.icache.ReadReq_mshr_miss_latency::total     67883500                       # number of ReadReq MSHR miss cycles
system.cpu.icache.demand_mshr_miss_latency::cpu.inst     67883500                       # number of demand (read+write) MSHR miss cycles
system.cpu.icache.demand_mshr_miss_latency::total     67883500                       # number of demand (read+write) MSHR miss cycles
system.cpu.icache.overall_mshr_miss_latency::cpu.inst     67883500                       # number of overall MSHR miss cycles
system.cpu.icache.overall_mshr_miss_latency::total     67883500                       # number of overall MSHR miss cycles
system.cpu.icache.ReadReq_mshr_miss_rate::cpu.inst     0.000012                       # mshr miss rate for ReadReq accesses
system.cpu.icache.ReadReq_mshr_miss_rate::total     0.000012                       # mshr miss rate for ReadReq accesses
system.cpu.icache.demand_mshr_miss_rate::cpu.inst     0.000012                       # mshr miss rate for demand accesses
system.cpu.icache.demand_mshr_miss_rate::total     0.000012                       # mshr miss rate for demand accesses
system.cpu.icache.overall_mshr_miss_rate::cpu.inst     0.000012                       # mshr miss rate for overall accesses
system.cpu.icache.overall_mshr_miss_rate::total     0.000012                       # mshr miss rate for overall accesses
system.cpu.icache.ReadReq_avg_mshr_miss_latency::cpu.inst 84222.704715                       # average ReadReq mshr miss latency
system.cpu.icache.ReadReq_avg_mshr_miss_latency::total 84222.704715                       # average ReadReq mshr miss latency
system.cpu.icache.demand_avg_mshr_miss_latency::cpu.inst 84222.704715                       # average overall mshr miss latency
system.cpu.icache.demand_avg_mshr_miss_latency::total 84222.704715                       # average overall mshr miss latency
system.cpu.icache.overall_avg_mshr_miss_latency::cpu.inst 84222.704715                       # average overall mshr miss latency
system.cpu.icache.overall_avg_mshr_miss_latency::total 84222.704715                       # average overall mshr miss latency
system.cpu.icache.no_allocate_misses                0                       # Number of misses that were no-allocate
system.cpu.itb_walker_cache.tags.replacements            0                       # number of replacements
system.cpu.itb_walker_cache.tags.tagsinuse            0                       # Cycle average of tags in use
system.cpu.itb_walker_cache.tags.total_refs            0                       # Total number of references to valid blocks.
system.cpu.itb_walker_cache.tags.sampled_refs            0                       # Sample count of references to valid blocks.
system.cpu.itb_walker_cache.tags.avg_refs          nan                       # Average number of references to valid blocks.
system.cpu.itb_walker_cache.tags.warmup_cycle            0                       # Cycle when the warmup percentage was hit.
system.cpu.itb_walker_cache.tags.tag_accesses            0                       # Number of tag accesses
system.cpu.itb_walker_cache.tags.data_accesses            0                       # Number of data accesses
system.cpu.itb_walker_cache.blocked_cycles::no_mshrs            0                       # number of cycles access was blocked
system.cpu.itb_walker_cache.blocked_cycles::no_targets            0                       # number of cycles access was blocked
system.cpu.itb_walker_cache.blocked::no_mshrs            0                       # number of cycles access was blocked
system.cpu.itb_walker_cache.blocked::no_targets            0                       # number of cycles access was blocked
system.cpu.itb_walker_cache.avg_blocked_cycles::no_mshrs          nan                       # average number of cycles each access was blocked
system.cpu.itb_walker_cache.avg_blocked_cycles::no_targets          nan                       # average number of cycles each access was blocked
system.cpu.itb_walker_cache.fast_writes             0                       # number of fast writes performed
system.cpu.itb_walker_cache.cache_copies            0                       # number of cache copies performed
system.cpu.itb_walker_cache.no_allocate_misses            0                       # Number of misses that were no-allocate
system.l2.tags.replacements                       192                       # number of replacements
system.l2.tags.tagsinuse                  1747.084234                       # Cycle average of tags in use
system.l2.tags.total_refs                        7353                       # Total number of references to valid blocks.
system.l2.tags.sampled_refs                      1850                       # Sample count of references to valid blocks.
system.l2.tags.avg_refs                      3.974595                       # Average number of references to valid blocks.
system.l2.tags.warmup_cycle                         0                       # Cycle when the warmup percentage was hit.
system.l2.tags.occ_blocks::writebacks      736.493846                       # Average occupied blocks per requestor
system.l2.tags.occ_blocks::cpu.inst        658.230928                       # Average occupied blocks per requestor
system.l2.tags.occ_blocks::cpu.data        352.359460                       # Average occupied blocks per requestor
system.l2.tags.occ_percent::writebacks       0.089904                       # Average percentage of cache occupancy
system.l2.tags.occ_percent::cpu.inst         0.080350                       # Average percentage of cache occupancy
system.l2.tags.occ_percent::cpu.data         0.043013                       # Average percentage of cache occupancy
system.l2.tags.occ_percent::total            0.213267                       # Average percentage of cache occupancy
system.l2.tags.occ_task_id_blocks::1024          1658                       # Occupied blocks per task id
system.l2.tags.age_task_id_blocks_1024::0            2                       # Occupied blocks per task id
system.l2.tags.age_task_id_blocks_1024::1            2                       # Occupied blocks per task id
system.l2.tags.age_task_id_blocks_1024::2            5                       # Occupied blocks per task id
system.l2.tags.age_task_id_blocks_1024::3          320                       # Occupied blocks per task id
system.l2.tags.age_task_id_blocks_1024::4         1329                       # Occupied blocks per task id
system.l2.tags.occ_task_id_percent::1024     0.202393                       # Percentage of cache occupancy per task id
system.l2.tags.tag_accesses                     36234                       # Number of tag accesses
system.l2.tags.data_accesses                    36234                       # Number of data accesses
system.l2.WritebackDirty_hits::writebacks        11247                       # number of WritebackDirty hits
system.l2.WritebackDirty_hits::total            11247                       # number of WritebackDirty hits
system.l2.WritebackClean_hits::writebacks          132                       # number of WritebackClean hits
system.l2.WritebackClean_hits::total              132                       # number of WritebackClean hits
system.l2.ReadExReq_hits::cpu.data               7481                       # number of ReadExReq hits
system.l2.ReadExReq_hits::total                  7481                       # number of ReadExReq hits
system.l2.ReadCleanReq_hits::cpu.inst              13                       # number of ReadCleanReq hits
system.l2.ReadCleanReq_hits::total                 13                       # number of ReadCleanReq hits
system.l2.ReadSharedReq_hits::cpu.data           3368                       # number of ReadSharedReq hits
system.l2.ReadSharedReq_hits::total              3368                       # number of ReadSharedReq hits
system.l2.demand_hits::cpu.inst                    13                       # number of demand (read+write) hits
system.l2.demand_hits::cpu.data                 10849                       # number of demand (read+write) hits
system.l2.demand_hits::total                    10862                       # number of demand (read+write) hits
system.l2.overall_hits::cpu.inst                   13                       # number of overall hits
system.l2.overall_hits::cpu.data                10849                       # number of overall hits
system.l2.overall_hits::total                   10862                       # number of overall hits
system.l2.ReadExReq_misses::cpu.data             1402                       # number of ReadExReq misses
system.l2.ReadExReq_misses::total                1402                       # number of ReadExReq misses
system.l2.ReadCleanReq_misses::cpu.inst           793                       # number of ReadCleanReq misses
system.l2.ReadCleanReq_misses::total              793                       # number of ReadCleanReq misses
system.l2.ReadSharedReq_misses::cpu.data          543                       # number of ReadSharedReq misses
system.l2.ReadSharedReq_misses::total             543                       # number of ReadSharedReq misses
system.l2.demand_misses::cpu.inst                 793                       # number of demand (read+write) misses
system.l2.demand_misses::cpu.data                1945                       # number of demand (read+write) misses
system.l2.demand_misses::total                   2738                       # number of demand (read+write) misses
system.l2.overall_misses::cpu.inst                793                       # number of overall misses
system.l2.overall_misses::cpu.data               1945                       # number of overall misses
system.l2.overall_misses::total                  2738                       # number of overall misses
system.l2.ReadExReq_miss_latency::cpu.data    120433000                       # number of ReadExReq miss cycles
system.l2.ReadExReq_miss_latency::total     120433000                       # number of ReadExReq miss cycles
system.l2.ReadCleanReq_miss_latency::cpu.inst     66535000                       # number of ReadCleanReq miss cycles
system.l2.ReadCleanReq_miss_latency::total     66535000                       # number of ReadCleanReq miss cycles
system.l2.ReadSharedReq_miss_latency::cpu.data     44965000                       # number of ReadSharedReq miss cycles
system.l2.ReadSharedReq_miss_latency::total     44965000                       # number of ReadSharedReq miss cycles
system.l2.demand_miss_latency::cpu.inst      66535000                       # number of demand (read+write) miss cycles
system.l2.demand_miss_latency::cpu.data     165398000                       # number of demand (read+write) miss cycles
system.l2.demand_miss_latency::total        231933000                       # number of demand (read+write) miss cycles
system.l2.overall_miss_latency::cpu.inst     66535000                       # number of overall miss cycles
system.l2.overall_miss_latency::cpu.data    165398000                       # number of overall miss cycles
system.l2.overall_miss_latency::total       231933000                       # number of overall miss cycles
system.l2.WritebackDirty_accesses::writebacks        11247                       # number of WritebackDirty accesses(hits+misses)
system.l2.WritebackDirty_accesses::total        11247                       # number of WritebackDirty accesses(hits+misses)
system.l2.WritebackClean_accesses::writebacks          132                       # number of WritebackClean accesses(hits+misses)
system.l2.WritebackClean_accesses::total          132                       # number of WritebackClean accesses(hits+misses)
system.l2.ReadExReq_accesses::cpu.data           8883                       # number of ReadExReq accesses(hits+misses)
system.l2.ReadExReq_accesses::total              8883                       # number of ReadExReq accesses(hits+misses)
system.l2.ReadCleanReq_accesses::cpu.inst          806                       # number of ReadCleanReq accesses(hits+misses)
system.l2.ReadCleanReq_accesses::total            806                       # number of ReadCleanReq accesses(hits+misses)
system.l2.ReadSharedReq_accesses::cpu.data         3911                       # number of ReadSharedReq accesses(hits+misses)
system.l2.ReadSharedReq_accesses::total          3911                       # number of ReadSharedReq accesses(hits+misses)
system.l2.demand_accesses::cpu.inst               806                       # number of demand (read+write) accesses
system.l2.demand_accesses::cpu.data             12794                       # number of demand (read+write) accesses
system.l2.demand_accesses::total                13600                       # number of demand (read+write) accesses
system.l2.overall_accesses::cpu.inst              806                       # number of overall (read+write) accesses
system.l2.overall_accesses::cpu.data            12794                       # number of overall (read+write) accesses
system.l2.overall_accesses::total               13600                       # number of overall (read+write) accesses
system.l2.ReadExReq_miss_rate::cpu.data      0.157830                       # miss rate for ReadExReq accesses
system.l2.ReadExReq_miss_rate::total         0.157830                       # miss rate for ReadExReq accesses
system.l2.ReadCleanReq_miss_rate::cpu.inst     0.983871                       # miss rate for ReadCleanReq accesses
system.l2.ReadCleanReq_miss_rate::total      0.983871                       # miss rate for ReadCleanReq accesses
system.l2.ReadSharedReq_miss_rate::cpu.data     0.138839                       # miss rate for ReadSharedReq accesses
system.l2.ReadSharedReq_miss_rate::total     0.138839                       # miss rate for ReadSharedReq accesses
system.l2.demand_miss_rate::cpu.inst         0.983871                       # miss rate for demand accesses
system.l2.demand_miss_rate::cpu.data         0.152024                       # miss rate for demand accesses
system.l2.demand_miss_rate::total            0.201324                       # miss rate for demand accesses
system.l2.overall_miss_rate::cpu.inst        0.983871                       # miss rate for overall accesses
system.l2.overall_miss_rate::cpu.data        0.152024                       # miss rate for overall accesses
system.l2.overall_miss_rate::total           0.201324                       # miss rate for overall accesses
system.l2.ReadExReq_avg_miss_latency::cpu.data 85900.855920                       # average ReadExReq miss latency
system.l2.ReadExReq_avg_miss_latency::total 85900.855920                       # average ReadExReq miss latency
system.l2.ReadCleanReq_avg_miss_latency::cpu.inst 83902.900378                       # average ReadCleanReq miss latency
system.l2.ReadCleanReq_avg_miss_latency::total 83902.900378                       # average ReadCleanReq miss latency
system.l2.ReadSharedReq_avg_miss_latency::cpu.data 82808.471455                       # average ReadSharedReq miss latency
system.l2.ReadSharedReq_avg_miss_latency::total 82808.471455                       # average ReadSharedReq miss latency
system.l2.demand_avg_miss_latency::cpu.inst 83902.900378                       # average overall miss latency
system.l2.demand_avg_miss_latency::cpu.data 85037.532134                       # average overall miss latency
system.l2.demand_avg_miss_latency::total 84708.911614                       # average overall miss latency
system.l2.overall_avg_miss_latency::cpu.inst 83902.900378                       # average overall miss latency
system.l2.overall_avg_miss_latency::cpu.data 85037.532134                       # average overall miss latency
system.l2.overall_avg_miss_latency::total 84708.911614                       # average overall miss latency
system.l2.blocked_cycles::no_mshrs                  0                       # number of cycles access was blocked
system.l2.blocked_cycles::no_targets                0                       # number of cycles access was blocked
system.l2.blocked::no_mshrs                         0                       # number of cycles access was blocked
system.l2.blocked::no_targets                       0                       # number of cycles access was blocked
system.l2.avg_blocked_cycles::no_mshrs            nan                       # average number of cycles each access was blocked
system.l2.avg_blocked_cycles::no_targets          nan                       # average number of cycles each access was blocked
system.l2.fast_writes                               0                       # number of fast writes performed
system.l2.cache_copies                              0                       # number of cache copies performed
system.l2.writebacks::writebacks                    7                       # number of writebacks
system.l2.writebacks::total                         7                       # number of writebacks
system.l2.CleanEvict_mshr_misses::writebacks           31                       # number of CleanEvict MSHR misses
system.l2.CleanEvict_mshr_misses::total            31                       # number of CleanEvict MSHR misses
system.l2.ReadExReq_mshr_misses::cpu.data         1402                       # number of ReadExReq MSHR misses
system.l2.ReadExReq_mshr_misses::total           1402                       # number of ReadExReq MSHR misses
system.l2.ReadCleanReq_mshr_misses::cpu.inst          793                       # number of ReadCleanReq MSHR misses
system.l2.ReadCleanReq_mshr_misses::total          793                       # number of ReadCleanReq MSHR misses
system.l2.ReadSharedReq_mshr_misses::cpu.data          543                       # number of ReadSharedReq MSHR misses
system.l2.ReadSharedReq_mshr_misses::total          543                       # number of ReadSharedReq MSHR misses
system.l2.demand_mshr_misses::cpu.inst            793                       # number of demand (read+write) MSHR misses
system.l2.demand_mshr_misses::cpu.data           1945                       # number of demand (read+write) MSHR misses
system.l2.demand_mshr_misses::total              2738                       # number of demand (read+write) MSHR misses
system.l2.overall_mshr_misses::cpu.inst           793                       # number of overall MSHR misses
system.l2.overall_mshr_misses::cpu.data          1945                       # number of overall MSHR misses
system.l2.overall_mshr_misses::total             2738                       # number of overall MSHR misses
system.l2.ReadExReq_mshr_miss_latency::cpu.data    106413000                       # number of ReadExReq MSHR miss cycles
system.l2.ReadExReq_mshr_miss_latency::total    106413000                       # number of ReadExReq MSHR miss cycles
system.l2.ReadCleanReq_mshr_miss_latency::cpu.inst     58605000                       # number of ReadCleanReq MSHR miss cycles
system.l2.ReadCleanReq_mshr_miss_latency::total     58605000                       # number of ReadCleanReq MSHR miss cycles
system.l2.ReadSharedReq_mshr_miss_latency::cpu.data     39535000                       # number of ReadSharedReq MSHR miss cycles
system.l2.ReadSharedReq_mshr_miss_latency::total     39535000                       # number of ReadSharedReq MSHR miss cycles
system.l2.demand_mshr_miss_latency::cpu.inst     58605000                       # number of demand (read+write) MSHR miss cycles
system.l2.demand_mshr_miss_latency::cpu.data    145948000                       # number of demand (read+write) MSHR miss cycles
system.l2.demand_mshr_miss_latency::total    204553000                       # number of demand (read+write) MSHR miss cycles
system.l2.overall_mshr_miss_latency::cpu.inst     58605000                       # number of overall MSHR miss cycles
system.l2.overall_mshr_miss_latency::cpu.data    145948000                       # number of overall MSHR miss cycles
system.l2.overall_mshr_miss_latency::total    204553000                       # number of overall MSHR miss cycles
system.l2.CleanEvict_mshr_miss_rate::writebacks          inf                       # mshr miss rate for CleanEvict accesses
system.l2.CleanEvict_mshr_miss_rate::total          inf                       # mshr miss rate for CleanEvict accesses
system.l2.ReadExReq_mshr_miss_rate::cpu.data     0.157830                       # mshr miss rate for ReadExReq accesses
system.l2.ReadExReq_mshr_miss_rate::total     0.157830                       # mshr miss rate for ReadExReq accesses
system.l2.ReadCleanReq_mshr_miss_rate::cpu.inst     0.983871                       # mshr miss rate for ReadCleanReq accesses
system.l2.ReadCleanReq_mshr_miss_rate::total     0.983871                       # mshr miss rate for ReadCleanReq accesses
system.l2.ReadSharedReq_mshr_miss_rate::cpu.data     0.138839                       # mshr miss rate for ReadSharedReq accesses
system.l2.ReadSharedReq_mshr_miss_rate::total     0.138839                       # mshr miss rate for ReadSharedReq accesses
system.l2.demand_mshr_miss_rate::cpu.inst     0.983871                       # mshr miss rate for demand accesses
system.l2.demand_mshr_miss_rate::cpu.data     0.152024                       # mshr miss rate for demand accesses
system.l2.demand_mshr_miss_rate::total       0.201324                       # mshr miss rate for demand accesses
system.l2.overall_mshr_miss_rate::cpu.inst     0.983871                       # mshr miss rate for overall accesses
system.l2.overall_mshr_miss_rate::cpu.data     0.152024                       # mshr miss rate for overall accesses
system.l2.overall_mshr_miss_rate::total      0.201324                       # mshr miss rate for overall accesses
system.l2.ReadExReq_avg_mshr_miss_latency::cpu.data 75900.855920                       # average ReadExReq mshr miss latency
system.l2.ReadExReq_avg_mshr_miss_latency::total 75900.855920                       # average ReadExReq mshr miss latency
system.l2.ReadCleanReq_avg_mshr_miss_latency::cpu.inst 73902.900378                       # average ReadCleanReq mshr miss latency
system.l2.ReadCleanReq_avg_mshr_miss_latency::total 73902.900378                       # average ReadCleanReq mshr miss latency
system.l2.ReadSharedReq_avg_mshr_miss_latency::cpu.data 72808.471455                       # average ReadSharedReq mshr miss latency
system.l2.ReadSharedReq_avg_mshr_miss_latency::total 72808.471455                       # average ReadSharedReq mshr miss latency
system.l2.demand_avg_mshr_miss_latency::cpu.inst 73902.900378                       # average overall mshr miss latency
system.l2.demand_avg_mshr_miss_latency::cpu.data 75037.532134                       # average overall mshr miss latency
system.l2.demand_avg_mshr_miss_latency::total 74708.911614                       # average overall mshr miss latency
system.l2.overall_avg_mshr_miss_latency::cpu.inst 73902.900378                       # average overall mshr miss latency
system.l2.overall_avg_mshr_miss_latency::cpu.data 75037.532134                       # average overall mshr miss latency
system.l2.overall_avg_mshr_miss_latency::total 74708.911614                       # average overall mshr miss latency
system.l2.no_allocate_misses                        0                       # Number of misses that were no-allocate
system.membus.trans_dist::ReadResp               1336                       # Transaction distribution
system.membus.trans_dist::WritebackDirty            7                       # Transaction distribution
system.membus.trans_dist::CleanEvict               57                       # Transaction distribution
system.membus.trans_dist::ReadExReq              1402                       # Transaction distribution
system.membus.trans_dist::ReadExResp             1402                       # Transaction distribution
system.membus.trans_dist::ReadSharedReq          1336                       # Transaction distribution
system.membus.pkt_count_system.l2.mem_side::system.mem_ctrls.port         5540                       # Packet count per connected master and slave (bytes)
system.membus.pkt_count_system.l2.mem_side::total         5540                       # Packet count per connected master and slave (bytes)
system.membus.pkt_count::total                   5540                       # Packet count per connected master and slave (bytes)
system.membus.pkt_size_system.l2.mem_side::system.mem_ctrls.port       351360                       # Cumulative packet size per connected master and slave (bytes)
system.membus.pkt_size_system.l2.mem_side::total       351360                       # Cumulative packet size per connected master and slave (bytes)
system.membus.pkt_size::total                  351360                       # Cumulative packet size per connected master and slave (bytes)
system.membus.snoops                                0                       # Total snoops (count)
system.membus.snoop_fanout::samples              2802                       # Request fanout histogram
system.membus.snoop_fanout::mean                    0                       # Request fanout histogram
system.membus.snoop_fanout::stdev                   0                       # Request fanout histogram
system.membus.snoop_fanout::underflows              0      0.00%      0.00% # Request fanout histogram
system.membus.snoop_fanout::0                    2802    100.00%    100.00% # Request fanout histogram
system.membus.snoop_fanout::1                       0      0.00%    100.00% # Request fanout histogram
system.membus.snoop_fanout::overflows               0      0.00%    100.00% # Request fanout histogram
system.membus.snoop_fanout::min_value               0                       # Request fanout histogram
system.membus.snoop_fanout::max_value               0                       # Request fanout histogram
system.membus.snoop_fanout::total                2802                       # Request fanout histogram
system.membus.reqLayer2.occupancy             2900000                       # Layer occupancy (ticks)
system.membus.reqLayer2.utilization               0.0                       # Layer utilization (%)
system.membus.respLayer1.occupancy           25678750                       # Layer occupancy (ticks)
system.membus.respLayer1.utilization              0.0                       # Layer utilization (%)
system.tol2bus.snoop_filter.tot_requests        25502                       # Total number of requests made to the snoop filter.
system.tol2bus.snoop_filter.hit_single_requests        11902                       # Number of requests hitting in the snoop filter with a single holder of the requested data.
system.tol2bus.snoop_filter.hit_multi_requests            1                       # Number of requests hitting in the snoop filter with multiple (>1) holders of the requested data.
system.tol2bus.snoop_filter.tot_snoops            159                       # Total number of snoops made to the snoop filter.
system.tol2bus.snoop_filter.hit_single_snoops          159                       # Number of snoops hitting in the snoop filter with a single holder of the requested data.
system.tol2bus.snoop_filter.hit_multi_snoops            0                       # Number of snoops hitting in the snoop filter with multiple (>1) holders of the requested data.
system.tol2bus.trans_dist::ReadResp              4717                       # Transaction distribution
system.tol2bus.trans_dist::WritebackDirty        11254                       # Transaction distribution
system.tol2bus.trans_dist::WritebackClean          132                       # Transaction distribution
system.tol2bus.trans_dist::CleanEvict             707                       # Transaction distribution
system.tol2bus.trans_dist::ReadExReq             8883                       # Transaction distribution
system.tol2bus.trans_dist::ReadExResp            8883                       # Transaction distribution
system.tol2bus.trans_dist::ReadCleanReq           806                       # Transaction distribution
system.tol2bus.trans_dist::ReadSharedReq         3911                       # Transaction distribution
system.tol2bus.pkt_count_system.cpu.icache.mem_side::system.l2.cpu_side         1744                       # Packet count per connected master and slave (bytes)
system.tol2bus.pkt_count_system.cpu.dcache.mem_side::system.l2.cpu_side        37357                       # Packet count per connected master and slave (bytes)
system.tol2bus.pkt_count::total                 39101                       # Packet count per connected master and slave (bytes)
system.tol2bus.pkt_size_system.cpu.icache.mem_side::system.l2.cpu_side       120064                       # Cumulative packet size per connected master and slave (bytes)
system.tol2bus.pkt_size_system.cpu.dcache.mem_side::system.l2.cpu_side      3077248                       # Cumulative packet size per connected master and slave (bytes)
system.tol2bus.pkt_size::total                3197312                       # Cumulative packet size per connected master and slave (bytes)
system.tol2bus.snoops                             192                       # Total snoops (count)
system.tol2bus.snoop_fanout::samples            13792                       # Request fanout histogram
system.tol2bus.snoop_fanout::mean            0.011601                       # Request fanout histogram
system.tol2bus.snoop_fanout::stdev           0.107085                       # Request fanout histogram
system.tol2bus.snoop_fanout::underflows             0      0.00%      0.00% # Request fanout histogram
system.tol2bus.snoop_fanout::0                  13632     98.84%     98.84% # Request fanout histogram
system.tol2bus.snoop_fanout::1                    160      1.16%    100.00% # Request fanout histogram
system.tol2bus.snoop_fanout::2                      0      0.00%    100.00% # Request fanout histogram
system.tol2bus.snoop_fanout::3                      0      0.00%    100.00% # Request fanout histogram
system.tol2bus.snoop_fanout::4                      0      0.00%    100.00% # Request fanout histogram
system.tol2bus.snoop_fanout::overflows              0      0.00%    100.00% # Request fanout histogram
system.tol2bus.snoop_fanout::min_value              0                       # Request fanout histogram
system.tol2bus.snoop_fanout::max_value              1                       # Request fanout histogram
system.tol2bus.snoop_fanout::total              13792                       # Request fanout histogram
system.tol2bus.reqLayer0.occupancy           35509000                       # Layer occupancy (ticks)
system.tol2bus.reqLayer0.utilization              0.0                       # Layer utilization (%)
system.tol2bus.respLayer0.occupancy           2015000                       # Layer occupancy (ticks)
system.tol2bus.respLayer0.utilization             0.0                       # Layer utilization (%)
system.tol2bus.respLayer1.occupancy          31985000                       # Layer occupancy (ticks)
system.tol2bus.respLayer1.utilization             0.0                       # Layer utilization (%)

---------- End Simulation Statistics   ----------
